Program Version,EnergyPlus, Version 8.5.0-c87e61b44b, YMD=2020.03.01 15:03
! This file shows details about the branches, nodes, and other
! elements of the flow connections.
! This file is intended for use in "debugging" potential problems
! that may also be detected by the program, but may be more easily
! identified by "eye".
! This file is also intended to support software which draws a
! schematic diagram of the HVAC system.
! ===============================================================
! #Nodes,<Number of Unique Nodes>
 #Nodes,239
! <Node>,<NodeNumber>,<Node Name>,<Node Fluid Type>,<# Times Node Referenced After Definition>
 Node,1,BASEMENT VAV BOX OUTLET NODE NAME,Air,4
 Node,2,CORE_BOTTOM VAV BOX OUTLET NODE NAME,Air,4
 Node,3,CORE_MID VAV BOX OUTLET NODE NAME,Air,4
 Node,4,CORE_TOP VAV BOX OUTLET NODE NAME,Air,4
 Node,5,PERIMETER_BOT_ZN_1 VAV BOX OUTLET NODE NAME,Air,4
 Node,6,PERIMETER_BOT_ZN_2 VAV BOX OUTLET NODE NAME,Air,4
 Node,7,PERIMETER_BOT_ZN_3 VAV BOX OUTLET NODE NAME,Air,4
 Node,8,PERIMETER_BOT_ZN_4 VAV BOX OUTLET NODE NAME,Air,4
 Node,9,PERIMETER_MID_ZN_1 VAV BOX OUTLET NODE NAME,Air,4
 Node,10,PERIMETER_MID_ZN_2 VAV BOX OUTLET NODE NAME,Air,4
 Node,11,PERIMETER_MID_ZN_3 VAV BOX OUTLET NODE NAME,Air,4
 Node,12,PERIMETER_MID_ZN_4 VAV BOX OUTLET NODE NAME,Air,4
 Node,13,PERIMETER_TOP_ZN_1 VAV BOX OUTLET NODE NAME,Air,4
 Node,14,PERIMETER_TOP_ZN_2 VAV BOX OUTLET NODE NAME,Air,4
 Node,15,PERIMETER_TOP_ZN_3 VAV BOX OUTLET NODE NAME,Air,4
 Node,16,PERIMETER_TOP_ZN_4 VAV BOX OUTLET NODE NAME,Air,4
 Node,17,VAV_1_OAINLET NODE,Air,3
 Node,18,VAV_2_OAINLET NODE,Air,3
 Node,19,VAV_3_OAINLET NODE,Air,3
 Node,20,VAV_5_OAINLET NODE,Air,3
 Node,21,VAV_1 SUPPLY EQUIPMENT INLET NODE,Air,3
 Node,22,VAV_1_OA-VAV_1_COOLCNODE,Air,5
 Node,23,VAV_1_COOLC-VAV_1_HEATCNODE,Air,5
 Node,24,VAV_1_HEATC-VAV_1_FANNODE,Air,8
 Node,25,VAV_1 SUPPLY EQUIPMENT OUTLET NODE,Air,9
 Node,26,VAV_2 SUPPLY EQUIPMENT INLET NODE,Air,3
 Node,27,VAV_2_OA-VAV_2_COOLCNODE,Air,5
 Node,28,VAV_2_COOLC-VAV_2_HEATCNODE,Air,5
 Node,29,VAV_2_HEATC-VAV_2_FANNODE,Air,8
 Node,30,VAV_2 SUPPLY EQUIPMENT OUTLET NODE,Air,9
 Node,31,VAV_3 SUPPLY EQUIPMENT INLET NODE,Air,3
 Node,32,VAV_3_OA-VAV_3_COOLCNODE,Air,5
 Node,33,VAV_3_COOLC-VAV_3_HEATCNODE,Air,5
 Node,34,VAV_3_HEATC-VAV_3_FANNODE,Air,8
 Node,35,VAV_3 SUPPLY EQUIPMENT OUTLET NODE,Air,9
 Node,36,VAV_5 SUPPLY EQUIPMENT INLET NODE,Air,3
 Node,37,VAV_5_OA-VAV_5_COOLCNODE,Air,5
 Node,38,VAV_5_COOLC-VAV_5_HEATCNODE,Air,5
 Node,39,VAV_5_HEATC-VAV_5_FANNODE,Air,8
 Node,40,VAV_5 SUPPLY EQUIPMENT OUTLET NODE,Air,9
 Node,41,COOLSYS1 DEMAND BYPASS PIPE INLET NODE,Water,1
 Node,42,COOLSYS1 DEMAND BYPASS PIPE OUTLET NODE,Water,1
 Node,43,COOLSYS1 DEMAND INLET NODE,Water,2
 Node,44,COOLSYS1 DEMAND INLET PIPE-COOLSYS1 DEMAND MIXER,Water,1
 Node,45,VAV_5_COOLCDEMAND INLET NODE,Water,2
 Node,46,VAV_5_COOLCDEMAND OUTLET NODE,Water,1
 Node,47,VAV_1_COOLCDEMAND INLET NODE,Water,2
 Node,48,VAV_1_COOLCDEMAND OUTLET NODE,Water,1
 Node,49,VAV_2_COOLCDEMAND INLET NODE,Water,2
 Node,50,VAV_2_COOLCDEMAND OUTLET NODE,Water,1
 Node,51,VAV_3_COOLCDEMAND INLET NODE,Water,2
 Node,52,VAV_3_COOLCDEMAND OUTLET NODE,Water,1
 Node,53,COOLSYS1 DEMAND MIXER-COOLSYS1 DEMAND OUTLET PIPE,Water,1
 Node,54,COOLSYS1 DEMAND OUTLET NODE,Water,2
 Node,55,COOLSYS1 PUMP-COOLSYS1 CHILLERNODE 1,Water,1
 Node,56,COOLSYS1 SUPPLY EQUIPMENT OUTLET NODE 1,Water,2
 Node,57,COOLSYS1 PUMP-COOLSYS1 CHILLERNODE 2,Water,1
 Node,58,COOLSYS1 SUPPLY EQUIPMENT OUTLET NODE 2,Water,2
 Node,59,COOLSYS1 SUPPLY EQUIP BYPASS INLET NODE,Water,1
 Node,60,COOLSYS1 SUPPLY EQUIP BYPASS OUTLET NODE,Water,1
 Node,61,COOLSYS1 SUPPLY INLET NODE,Water,2
 Node,62,COOLSYS1 PUMP-COOLSYS1 CHILLERNODEVIACONNECTOR,Water,1
 Node,63,COOLSYS1 SUPPLY MIXER-COOLSYS1 SUPPLY OUTLET PIPE,Water,1
 Node,64,COOLSYS1 SUPPLY OUTLET NODE,Water,4
 Node,65,HEATSYS1 DEMAND BYPASS PIPE INLET NODE,Water,1
 Node,66,HEATSYS1 DEMAND BYPASS PIPE OUTLET NODE,Water,1
 Node,67,HEATSYS1 DEMAND INLET NODE,Water,2
 Node,68,HEATSYS1 DEMAND INLET PIPE-HEATSYS1 DEMAND MIXER,Water,1
 Node,69,BASEMENT VAV BOX REHEAT COILDEMAND INLET NODE,Water,1
 Node,70,BASEMENT VAV BOX REHEAT COILDEMAND OUTLET NODE,Water,1
 Node,71,PERIMETER_MID_ZN_2 VAV BOX REHEAT COILDEMAND INLET NODE,Water,1
 Node,72,PERIMETER_MID_ZN_2 VAV BOX REHEAT COILDEMAND OUTLET NODE,Water,1
 Node,73,PERIMETER_MID_ZN_1 VAV BOX REHEAT COILDEMAND INLET NODE,Water,1
 Node,74,PERIMETER_MID_ZN_1 VAV BOX REHEAT COILDEMAND OUTLET NODE,Water,1
 Node,75,PERIMETER_MID_ZN_4 VAV BOX REHEAT COILDEMAND INLET NODE,Water,1
 Node,76,PERIMETER_MID_ZN_4 VAV BOX REHEAT COILDEMAND OUTLET NODE,Water,1
 Node,77,PERIMETER_TOP_ZN_3 VAV BOX REHEAT COILDEMAND INLET NODE,Water,1
 Node,78,PERIMETER_TOP_ZN_3 VAV BOX REHEAT COILDEMAND OUTLET NODE,Water,1
 Node,79,PERIMETER_TOP_ZN_2 VAV BOX REHEAT COILDEMAND INLET NODE,Water,1
 Node,80,PERIMETER_TOP_ZN_2 VAV BOX REHEAT COILDEMAND OUTLET NODE,Water,1
 Node,81,PERIMETER_TOP_ZN_1 VAV BOX REHEAT COILDEMAND INLET NODE,Water,1
 Node,82,PERIMETER_TOP_ZN_1 VAV BOX REHEAT COILDEMAND OUTLET NODE,Water,1
 Node,83,PERIMETER_TOP_ZN_4 VAV BOX REHEAT COILDEMAND INLET NODE,Water,1
 Node,84,PERIMETER_TOP_ZN_4 VAV BOX REHEAT COILDEMAND OUTLET NODE,Water,1
 Node,85,VAV_5_HEATCDEMAND INLET NODE,Water,2
 Node,86,VAV_5_HEATCDEMAND OUTLET NODE,Water,1
 Node,87,VAV_1_HEATCDEMAND INLET NODE,Water,2
 Node,88,VAV_1_HEATCDEMAND OUTLET NODE,Water,1
 Node,89,VAV_2_HEATCDEMAND INLET NODE,Water,2
 Node,90,VAV_2_HEATCDEMAND OUTLET NODE,Water,1
 Node,91,CORE_BOTTOM VAV BOX REHEAT COILDEMAND INLET NODE,Water,1
 Node,92,CORE_BOTTOM VAV BOX REHEAT COILDEMAND OUTLET NODE,Water,1
 Node,93,VAV_3_HEATCDEMAND INLET NODE,Water,2
 Node,94,VAV_3_HEATCDEMAND OUTLET NODE,Water,1
 Node,95,CORE_MID VAV BOX REHEAT COILDEMAND INLET NODE,Water,1
 Node,96,CORE_MID VAV BOX REHEAT COILDEMAND OUTLET NODE,Water,1
 Node,97,CORE_TOP VAV BOX REHEAT COILDEMAND INLET NODE,Water,1
 Node,98,CORE_TOP VAV BOX REHEAT COILDEMAND OUTLET NODE,Water,1
 Node,99,PERIMETER_BOT_ZN_3 VAV BOX REHEAT COILDEMAND INLET NODE,Water,1
 Node,100,PERIMETER_BOT_ZN_3 VAV BOX REHEAT COILDEMAND OUTLET NODE,Water,1
 Node,101,PERIMETER_BOT_ZN_2 VAV BOX REHEAT COILDEMAND INLET NODE,Water,1
 Node,102,PERIMETER_BOT_ZN_2 VAV BOX REHEAT COILDEMAND OUTLET NODE,Water,1
 Node,103,PERIMETER_BOT_ZN_1 VAV BOX REHEAT COILDEMAND INLET NODE,Water,1
 Node,104,PERIMETER_BOT_ZN_1 VAV BOX REHEAT COILDEMAND OUTLET NODE,Water,1
 Node,105,PERIMETER_BOT_ZN_4 VAV BOX REHEAT COILDEMAND INLET NODE,Water,1
 Node,106,PERIMETER_BOT_ZN_4 VAV BOX REHEAT COILDEMAND OUTLET NODE,Water,1
 Node,107,PERIMETER_MID_ZN_3 VAV BOX REHEAT COILDEMAND INLET NODE,Water,1
 Node,108,PERIMETER_MID_ZN_3 VAV BOX REHEAT COILDEMAND OUTLET NODE,Water,1
 Node,109,HEATSYS1 DEMAND MIXER-HEATSYS1 DEMAND OUTLET PIPE,Water,1
 Node,110,HEATSYS1 DEMAND OUTLET NODE,Water,2
 Node,111,HEATSYS1 PUMP-HEATSYS1 BOILERNODE,Water,1
 Node,112,HEATSYS1 SUPPLY EQUIPMENT OUTLET NODE,Water,2
 Node,113,HEATSYS1 SUPPLY EQUIP BYPASS INLET NODE,Water,1
 Node,114,HEATSYS1 SUPPLY EQUIP BYPASS OUTLET NODE,Water,1
 Node,115,HEATSYS1 SUPPLY INLET NODE,Water,2
 Node,116,HEATSYS1 PUMP-HEATSYS1 BOILERNODEVIACONNECTOR,Water,1
 Node,117,HEATSYS1 SUPPLY MIXER-HEATSYS1 SUPPLY OUTLET PIPE,Water,1
 Node,118,HEATSYS1 SUPPLY OUTLET NODE,Water,4
 Node,119,TOWERWATERSYS DEMAND BYPASS PIPE INLET NODE,Water,1
 Node,120,TOWERWATERSYS DEMAND BYPASS PIPE OUTLET NODE,Water,1
 Node,121,TOWERWATERSYS DEMAND INLET NODE,Water,2
 Node,122,TOWERWATERSYS DEMAND INLET PIPE-TOWERWATERSYS DEMAND MIXER,Water,1
 Node,123,COOLSYS1 CHILLER WATER INLET NODE 1,Water,1
 Node,124,COOLSYS1 CHILLER WATER OUTLET NODE 1,Water,1
 Node,125,COOLSYS1 CHILLER WATER INLET NODE 2,Water,1
 Node,126,COOLSYS1 CHILLER WATER OUTLET NODE 2,Water,1
 Node,127,TOWERWATERSYS DEMAND MIXER-TOWERWATERSYS DEMAND OUTLET PIPE,Water,1
 Node,128,TOWERWATERSYS DEMAND OUTLET NODE,Water,2
 Node,129,TOWERWATERSYS PUMP-TOWERWATERSYS COOLTOWERNODE,Water,1
 Node,130,TOWERWATERSYS SUPPLY EQUIPMENT OUTLET NODE,Water,1
 Node,131,TOWERWATERSYS SUPPLY EQUIP BYPASS INLET NODE,Water,1
 Node,132,TOWERWATERSYS SUPPLY EQUIP BYPASS OUTLET NODE,Water,1
 Node,133,TOWERWATERSYS SUPPLY INLET NODE,Water,2
 Node,134,TOWERWATERSYS PUMP-TOWERWATERSYS COOLTOWERNODEVIACONNECTOR,Water,1
 Node,135,TOWERWATERSYS SUPPLY MIXER-TOWERWATERSYS SUPPLY OUTLET PIPE,Water,1
 Node,136,TOWERWATERSYS SUPPLY OUTLET NODE,Water,4
 Node,137,SWHSYS1 DEMAND BYPASS PIPE INLET NODE,Water,1
 Node,138,SWHSYS1 DEMAND BYPASS PIPE OUTLET NODE,Water,1
 Node,139,SWHSYS1 DEMAND INLET NODE,Water,2
 Node,140,SWHSYS1 DEMAND INLET PIPE-SWHSYS1 DEMAND MIXER,Water,1
 Node,141,CORE_BOTTOM WATER EQUIPMENT WATER INLET NODE,Water,1
 Node,142,CORE_BOTTOM WATER EQUIPMENT WATER OUTLET NODE,Water,1
 Node,143,CORE_MID WATER EQUIPMENT WATER INLET NODE,Water,1
 Node,144,CORE_MID WATER EQUIPMENT WATER OUTLET NODE,Water,1
 Node,145,CORE_TOP WATER EQUIPMENT WATER INLET NODE,Water,1
 Node,146,CORE_TOP WATER EQUIPMENT WATER OUTLET NODE,Water,1
 Node,147,SWHSYS1 DEMAND MIXER-SWHSYS1 DEMAND OUTLET PIPE,Water,1
 Node,148,SWHSYS1 DEMAND OUTLET NODE,Water,2
 Node,149,SWHSYS1 PUMP-SWHSYS1 WATER HEATERNODE,Water,1
 Node,150,SWHSYS1 SUPPLY EQUIPMENT OUTLET NODE,Water,1
 Node,151,SWHSYS1 SUPPLY EQUIP BYPASS INLET NODE,Water,1
 Node,152,SWHSYS1 SUPPLY EQUIP BYPASS OUTLET NODE,Water,1
 Node,153,SWHSYS1 SUPPLY INLET NODE,Water,2
 Node,154,SWHSYS1 PUMP-SWHSYS1 WATER HEATERNODEVIACONNECTOR,Water,1
 Node,155,SWHSYS1 SUPPLY MIXER-SWHSYS1 SUPPLY OUTLET PIPE,Water,1
 Node,156,SWHSYS1 SUPPLY OUTLET NODE,Water,4
 Node,157,TOWERWATERSYS COOLTOWER OA REF NODE,Air,1
 Node,158,BASEMENT AIR NODE,Air,0
 Node,159,BASEMENT RETURN AIR NODE NAME,Air,1
 Node,160,CORE_BOTTOM AIR NODE,Air,0
 Node,161,CORE_BOTTOM RETURN AIR NODE NAME,Air,1
 Node,162,CORE_MID AIR NODE,Air,0
 Node,163,CORE_MID RETURN AIR NODE NAME,Air,1
 Node,164,CORE_TOP AIR NODE,Air,0
 Node,165,CORE_TOP RETURN AIR NODE NAME,Air,1
 Node,166,PERIMETER_BOT_ZN_1 AIR NODE,Air,0
 Node,167,PERIMETER_BOT_ZN_1 RETURN AIR NODE NAME,Air,1
 Node,168,PERIMETER_BOT_ZN_2 AIR NODE,Air,0
 Node,169,PERIMETER_BOT_ZN_2 RETURN AIR NODE NAME,Air,1
 Node,170,PERIMETER_BOT_ZN_3 AIR NODE,Air,0
 Node,171,PERIMETER_BOT_ZN_3 RETURN AIR NODE NAME,Air,1
 Node,172,PERIMETER_BOT_ZN_4 AIR NODE,Air,0
 Node,173,PERIMETER_BOT_ZN_4 RETURN AIR NODE NAME,Air,1
 Node,174,PERIMETER_MID_ZN_1 AIR NODE,Air,0
 Node,175,PERIMETER_MID_ZN_1 RETURN AIR NODE NAME,Air,1
 Node,176,PERIMETER_MID_ZN_2 AIR NODE,Air,0
 Node,177,PERIMETER_MID_ZN_2 RETURN AIR NODE NAME,Air,1
 Node,178,PERIMETER_MID_ZN_3 AIR NODE,Air,0
 Node,179,PERIMETER_MID_ZN_3 RETURN AIR NODE NAME,Air,1
 Node,180,PERIMETER_MID_ZN_4 AIR NODE,Air,0
 Node,181,PERIMETER_MID_ZN_4 RETURN AIR NODE NAME,Air,1
 Node,182,PERIMETER_TOP_ZN_1 AIR NODE,Air,0
 Node,183,PERIMETER_TOP_ZN_1 RETURN AIR NODE NAME,Air,1
 Node,184,PERIMETER_TOP_ZN_2 AIR NODE,Air,0
 Node,185,PERIMETER_TOP_ZN_2 RETURN AIR NODE NAME,Air,1
 Node,186,PERIMETER_TOP_ZN_3 AIR NODE,Air,0
 Node,187,PERIMETER_TOP_ZN_3 RETURN AIR NODE NAME,Air,1
 Node,188,PERIMETER_TOP_ZN_4 AIR NODE,Air,0
 Node,189,PERIMETER_TOP_ZN_4 RETURN AIR NODE NAME,Air,1
 Node,190,VAV_1 ZONE EQUIPMENT INLET NODE,Air,2
 Node,191,VAV_2 ZONE EQUIPMENT INLET NODE,Air,2
 Node,192,VAV_3 ZONE EQUIPMENT INLET NODE,Air,2
 Node,193,VAV_5 ZONE EQUIPMENT INLET NODE,Air,2
 Node,194,VAV_1 ZONE EQUIPMENT OUTLET NODE,Air,2
 Node,195,VAV_2 ZONE EQUIPMENT OUTLET NODE,Air,2
 Node,196,VAV_3 ZONE EQUIPMENT OUTLET NODE,Air,2
 Node,197,VAV_5 ZONE EQUIPMENT OUTLET NODE,Air,2
 Node,198,CORE_BOTTOM VAV BOX INLET NODE NAME,Air,1
 Node,199,PERIMETER_BOT_ZN_3 VAV BOX INLET NODE NAME,Air,1
 Node,200,PERIMETER_BOT_ZN_2 VAV BOX INLET NODE NAME,Air,1
 Node,201,PERIMETER_BOT_ZN_1 VAV BOX INLET NODE NAME,Air,1
 Node,202,PERIMETER_BOT_ZN_4 VAV BOX INLET NODE NAME,Air,1
 Node,203,CORE_MID VAV BOX INLET NODE NAME,Air,1
 Node,204,PERIMETER_MID_ZN_3 VAV BOX INLET NODE NAME,Air,1
 Node,205,PERIMETER_MID_ZN_2 VAV BOX INLET NODE NAME,Air,1
 Node,206,PERIMETER_MID_ZN_1 VAV BOX INLET NODE NAME,Air,1
 Node,207,PERIMETER_MID_ZN_4 VAV BOX INLET NODE NAME,Air,1
 Node,208,CORE_TOP VAV BOX INLET NODE NAME,Air,1
 Node,209,PERIMETER_TOP_ZN_3 VAV BOX INLET NODE NAME,Air,1
 Node,210,PERIMETER_TOP_ZN_2 VAV BOX INLET NODE NAME,Air,1
 Node,211,PERIMETER_TOP_ZN_1 VAV BOX INLET NODE NAME,Air,1
 Node,212,PERIMETER_TOP_ZN_4 VAV BOX INLET NODE NAME,Air,1
 Node,213,BASEMENT VAV BOX INLET NODE NAME,Air,1
 Node,214,BASEMENT VAV BOX DAMPER NODE,Air,1
 Node,215,CORE_BOTTOM VAV BOX DAMPER NODE,Air,1
 Node,216,CORE_MID VAV BOX DAMPER NODE,Air,1
 Node,217,CORE_TOP VAV BOX DAMPER NODE,Air,1
 Node,218,PERIMETER_BOT_ZN_1 VAV BOX DAMPER NODE,Air,1
 Node,219,PERIMETER_BOT_ZN_2 VAV BOX DAMPER NODE,Air,1
 Node,220,PERIMETER_BOT_ZN_3 VAV BOX DAMPER NODE,Air,1
 Node,221,PERIMETER_BOT_ZN_4 VAV BOX DAMPER NODE,Air,1
 Node,222,PERIMETER_MID_ZN_1 VAV BOX DAMPER NODE,Air,1
 Node,223,PERIMETER_MID_ZN_2 VAV BOX DAMPER NODE,Air,1
 Node,224,PERIMETER_MID_ZN_3 VAV BOX DAMPER NODE,Air,1
 Node,225,PERIMETER_MID_ZN_4 VAV BOX DAMPER NODE,Air,1
 Node,226,PERIMETER_TOP_ZN_1 VAV BOX DAMPER NODE,Air,1
 Node,227,PERIMETER_TOP_ZN_2 VAV BOX DAMPER NODE,Air,1
 Node,228,PERIMETER_TOP_ZN_3 VAV BOX DAMPER NODE,Air,1
 Node,229,PERIMETER_TOP_ZN_4 VAV BOX DAMPER NODE,Air,1
 Node,230,MIDFLOOR_PLENUMPLENUMNODE,Air,0
 Node,231,MIDFLOOR_PLENUMPLENUMOUTLETNODE,Air,1
 Node,232,GROUNDFLOOR_PLENUMPLENUMNODE,Air,0
 Node,233,GROUNDFLOOR_PLENUMPLENUMOUTLETNODE,Air,1
 Node,234,TOPFLOOR_PLENUMPLENUMNODE,Air,0
 Node,235,TOPFLOOR_PLENUMPLENUMOUTLETNODE,Air,1
 Node,236,VAV_1_OARELIEF NODE,Air,1
 Node,237,VAV_2_OARELIEF NODE,Air,1
 Node,238,VAV_3_OARELIEF NODE,Air,1
 Node,239,VAV_5_OARELIEF NODE,Air,1
! ===============================================================
! Suspicious nodes have 0 references.  It is normal for some nodes, however.
! Listing nodes with 0 references (culled from previous list):
! <Suspicious Node>,<NodeNumber>,<Node Name>,<Node Fluid Type>,<# Times Node Referenced After Definition>
 Suspicious Node,158,BASEMENT AIR NODE,Air,0
 Suspicious Node,160,CORE_BOTTOM AIR NODE,Air,0
 Suspicious Node,162,CORE_MID AIR NODE,Air,0
 Suspicious Node,164,CORE_TOP AIR NODE,Air,0
 Suspicious Node,166,PERIMETER_BOT_ZN_1 AIR NODE,Air,0
 Suspicious Node,168,PERIMETER_BOT_ZN_2 AIR NODE,Air,0
 Suspicious Node,170,PERIMETER_BOT_ZN_3 AIR NODE,Air,0
 Suspicious Node,172,PERIMETER_BOT_ZN_4 AIR NODE,Air,0
 Suspicious Node,174,PERIMETER_MID_ZN_1 AIR NODE,Air,0
 Suspicious Node,176,PERIMETER_MID_ZN_2 AIR NODE,Air,0
 Suspicious Node,178,PERIMETER_MID_ZN_3 AIR NODE,Air,0
 Suspicious Node,180,PERIMETER_MID_ZN_4 AIR NODE,Air,0
 Suspicious Node,182,PERIMETER_TOP_ZN_1 AIR NODE,Air,0
 Suspicious Node,184,PERIMETER_TOP_ZN_2 AIR NODE,Air,0
 Suspicious Node,186,PERIMETER_TOP_ZN_3 AIR NODE,Air,0
 Suspicious Node,188,PERIMETER_TOP_ZN_4 AIR NODE,Air,0
 Suspicious Node,230,MIDFLOOR_PLENUMPLENUMNODE,Air,0
 Suspicious Node,232,GROUNDFLOOR_PLENUMPLENUMNODE,Air,0
 Suspicious Node,234,TOPFLOOR_PLENUMPLENUMNODE,Air,0
! ===============================================================
! <#Branch Lists>,<Number of Branch Lists>
 #Branch Lists,12
! <Branch List>,<Branch List Count>,<Branch List Name>,<Loop Name>,<Loop Type>,<Number of Branches>
! <Branch>,<Branch Count>,<Branch Name>,<Loop Name>,<Loop Type>,<Branch Inlet Node Name>,<Branch Outlet Node Name>
 Branch List,1,VAV_1 AIR LOOP BRANCHES,VAV_1,Air,1
   Branch,1,VAV_1 AIR LOOP MAIN BRANCH,VAV_1,Air,VAV_1 SUPPLY EQUIPMENT INLET NODE,VAV_1 SUPPLY EQUIPMENT OUTLET NODE
 Branch List,2,VAV_2 AIR LOOP BRANCHES,VAV_2,Air,1
   Branch,1,VAV_2 AIR LOOP MAIN BRANCH,VAV_2,Air,VAV_2 SUPPLY EQUIPMENT INLET NODE,VAV_2 SUPPLY EQUIPMENT OUTLET NODE
 Branch List,3,VAV_3 AIR LOOP BRANCHES,VAV_3,Air,1
   Branch,1,VAV_3 AIR LOOP MAIN BRANCH,VAV_3,Air,VAV_3 SUPPLY EQUIPMENT INLET NODE,VAV_3 SUPPLY EQUIPMENT OUTLET NODE
 Branch List,4,VAV_5 AIR LOOP BRANCHES,VAV_5,Air,1
   Branch,1,VAV_5 AIR LOOP MAIN BRANCH,VAV_5,Air,VAV_5 SUPPLY EQUIPMENT INLET NODE,VAV_5 SUPPLY EQUIPMENT OUTLET NODE
 Branch List,5,COOLSYS1 DEMAND BRANCHES,COOLSYS1,Plant Demand,7
   Branch,1,COOLSYS1 DEMAND INLET BRANCH,COOLSYS1,Plant Demand,COOLSYS1 DEMAND INLET NODE,COOLSYS1 DEMAND INLET PIPE-COOLSYS1 DEMAND MIXER
   Branch,2,COOLSYS1 DEMAND LOAD BRANCH 1,COOLSYS1,Plant Demand,VAV_5_COOLCDEMAND INLET NODE,VAV_5_COOLCDEMAND OUTLET NODE
   Branch,3,COOLSYS1 DEMAND LOAD BRANCH 2,COOLSYS1,Plant Demand,VAV_1_COOLCDEMAND INLET NODE,VAV_1_COOLCDEMAND OUTLET NODE
   Branch,4,COOLSYS1 DEMAND LOAD BRANCH 3,COOLSYS1,Plant Demand,VAV_2_COOLCDEMAND INLET NODE,VAV_2_COOLCDEMAND OUTLET NODE
   Branch,5,COOLSYS1 DEMAND LOAD BRANCH 4,COOLSYS1,Plant Demand,VAV_3_COOLCDEMAND INLET NODE,VAV_3_COOLCDEMAND OUTLET NODE
   Branch,6,COOLSYS1 DEMAND BYPASS BRANCH,COOLSYS1,Plant Demand,COOLSYS1 DEMAND BYPASS PIPE INLET NODE,COOLSYS1 DEMAND BYPASS PIPE OUTLET NODE
   Branch,7,COOLSYS1 DEMAND OUTLET BRANCH,COOLSYS1,Plant Demand,COOLSYS1 DEMAND MIXER-COOLSYS1 DEMAND OUTLET PIPE,COOLSYS1 DEMAND OUTLET NODE
 Branch List,6,COOLSYS1 SUPPLY BRANCHES,COOLSYS1,Plant Supply,5
   Branch,1,COOLSYS1 SUPPLY INLET BRANCH,COOLSYS1,Plant Supply,COOLSYS1 SUPPLY INLET NODE,COOLSYS1 PUMP-COOLSYS1 CHILLERNODEVIACONNECTOR
   Branch,2,COOLSYS1 SUPPLY EQUIPMENT BRANCH 1,COOLSYS1,Plant Supply,COOLSYS1 PUMP-COOLSYS1 CHILLERNODE 1,COOLSYS1 SUPPLY EQUIPMENT OUTLET NODE 1
   Branch,3,COOLSYS1 SUPPLY EQUIPMENT BRANCH 2,COOLSYS1,Plant Supply,COOLSYS1 PUMP-COOLSYS1 CHILLERNODE 2,COOLSYS1 SUPPLY EQUIPMENT OUTLET NODE 2
   Branch,4,COOLSYS1 SUPPLY EQUIPMENT BYPASS BRANCH,COOLSYS1,Plant Supply,COOLSYS1 SUPPLY EQUIP BYPASS INLET NODE,COOLSYS1 SUPPLY EQUIP BYPASS OUTLET NODE
   Branch,5,COOLSYS1 SUPPLY OUTLET BRANCH,COOLSYS1,Plant Supply,COOLSYS1 SUPPLY MIXER-COOLSYS1 SUPPLY OUTLET PIPE,COOLSYS1 SUPPLY OUTLET NODE
 Branch List,7,HEATSYS1 DEMAND BRANCHES,HEATSYS1,Plant Demand,23
   Branch,1,HEATSYS1 DEMAND INLET BRANCH,HEATSYS1,Plant Demand,HEATSYS1 DEMAND INLET NODE,HEATSYS1 DEMAND INLET PIPE-HEATSYS1 DEMAND MIXER
   Branch,2,HEATSYS1 DEMAND LOAD BRANCH 1,HEATSYS1,Plant Demand,BASEMENT VAV BOX REHEAT COILDEMAND INLET NODE,BASEMENT VAV BOX REHEAT COILDEMAND OUTLET NODE
   Branch,3,HEATSYS1 DEMAND LOAD BRANCH 2,HEATSYS1,Plant Demand,CORE_BOTTOM VAV BOX REHEAT COILDEMAND INLET NODE,CORE_BOTTOM VAV BOX REHEAT COILDEMAND OUTLET NODE
   Branch,4,HEATSYS1 DEMAND LOAD BRANCH 3,HEATSYS1,Plant Demand,CORE_MID VAV BOX REHEAT COILDEMAND INLET NODE,CORE_MID VAV BOX REHEAT COILDEMAND OUTLET NODE
   Branch,5,HEATSYS1 DEMAND LOAD BRANCH 4,HEATSYS1,Plant Demand,CORE_TOP VAV BOX REHEAT COILDEMAND INLET NODE,CORE_TOP VAV BOX REHEAT COILDEMAND OUTLET NODE
   Branch,6,HEATSYS1 DEMAND LOAD BRANCH 5,HEATSYS1,Plant Demand,PERIMETER_BOT_ZN_3 VAV BOX REHEAT COILDEMAND INLET NODE,PERIMETER_BOT_ZN_3 VAV BOX REHEAT COILDEMAND OUTLET NODE
   Branch,7,HEATSYS1 DEMAND LOAD BRANCH 6,HEATSYS1,Plant Demand,PERIMETER_BOT_ZN_2 VAV BOX REHEAT COILDEMAND INLET NODE,PERIMETER_BOT_ZN_2 VAV BOX REHEAT COILDEMAND OUTLET NODE
   Branch,8,HEATSYS1 DEMAND LOAD BRANCH 7,HEATSYS1,Plant Demand,PERIMETER_BOT_ZN_1 VAV BOX REHEAT COILDEMAND INLET NODE,PERIMETER_BOT_ZN_1 VAV BOX REHEAT COILDEMAND OUTLET NODE
   Branch,9,HEATSYS1 DEMAND LOAD BRANCH 8,HEATSYS1,Plant Demand,PERIMETER_BOT_ZN_4 VAV BOX REHEAT COILDEMAND INLET NODE,PERIMETER_BOT_ZN_4 VAV BOX REHEAT COILDEMAND OUTLET NODE
   Branch,10,HEATSYS1 DEMAND LOAD BRANCH 9,HEATSYS1,Plant Demand,PERIMETER_MID_ZN_3 VAV BOX REHEAT COILDEMAND INLET NODE,PERIMETER_MID_ZN_3 VAV BOX REHEAT COILDEMAND OUTLET NODE
   Branch,11,HEATSYS1 DEMAND LOAD BRANCH 10,HEATSYS1,Plant Demand,PERIMETER_MID_ZN_2 VAV BOX REHEAT COILDEMAND INLET NODE,PERIMETER_MID_ZN_2 VAV BOX REHEAT COILDEMAND OUTLET NODE
   Branch,12,HEATSYS1 DEMAND LOAD BRANCH 11,HEATSYS1,Plant Demand,PERIMETER_MID_ZN_1 VAV BOX REHEAT COILDEMAND INLET NODE,PERIMETER_MID_ZN_1 VAV BOX REHEAT COILDEMAND OUTLET NODE
   Branch,13,HEATSYS1 DEMAND LOAD BRANCH 12,HEATSYS1,Plant Demand,PERIMETER_MID_ZN_4 VAV BOX REHEAT COILDEMAND INLET NODE,PERIMETER_MID_ZN_4 VAV BOX REHEAT COILDEMAND OUTLET NODE
   Branch,14,HEATSYS1 DEMAND LOAD BRANCH 13,HEATSYS1,Plant Demand,PERIMETER_TOP_ZN_3 VAV BOX REHEAT COILDEMAND INLET NODE,PERIMETER_TOP_ZN_3 VAV BOX REHEAT COILDEMAND OUTLET NODE
   Branch,15,HEATSYS1 DEMAND LOAD BRANCH 14,HEATSYS1,Plant Demand,PERIMETER_TOP_ZN_2 VAV BOX REHEAT COILDEMAND INLET NODE,PERIMETER_TOP_ZN_2 VAV BOX REHEAT COILDEMAND OUTLET NODE
   Branch,16,HEATSYS1 DEMAND LOAD BRANCH 15,HEATSYS1,Plant Demand,PERIMETER_TOP_ZN_1 VAV BOX REHEAT COILDEMAND INLET NODE,PERIMETER_TOP_ZN_1 VAV BOX REHEAT COILDEMAND OUTLET NODE
   Branch,17,HEATSYS1 DEMAND LOAD BRANCH 16,HEATSYS1,Plant Demand,PERIMETER_TOP_ZN_4 VAV BOX REHEAT COILDEMAND INLET NODE,PERIMETER_TOP_ZN_4 VAV BOX REHEAT COILDEMAND OUTLET NODE
   Branch,18,HEATSYS1 DEMAND LOAD BRANCH 17,HEATSYS1,Plant Demand,VAV_5_HEATCDEMAND INLET NODE,VAV_5_HEATCDEMAND OUTLET NODE
   Branch,19,HEATSYS1 DEMAND LOAD BRANCH 18,HEATSYS1,Plant Demand,VAV_1_HEATCDEMAND INLET NODE,VAV_1_HEATCDEMAND OUTLET NODE
   Branch,20,HEATSYS1 DEMAND LOAD BRANCH 19,HEATSYS1,Plant Demand,VAV_2_HEATCDEMAND INLET NODE,VAV_2_HEATCDEMAND OUTLET NODE
   Branch,21,HEATSYS1 DEMAND LOAD BRANCH 20,HEATSYS1,Plant Demand,VAV_3_HEATCDEMAND INLET NODE,VAV_3_HEATCDEMAND OUTLET NODE
   Branch,22,HEATSYS1 DEMAND BYPASS BRANCH,HEATSYS1,Plant Demand,HEATSYS1 DEMAND BYPASS PIPE INLET NODE,HEATSYS1 DEMAND BYPASS PIPE OUTLET NODE
   Branch,23,HEATSYS1 DEMAND OUTLET BRANCH,HEATSYS1,Plant Demand,HEATSYS1 DEMAND MIXER-HEATSYS1 DEMAND OUTLET PIPE,HEATSYS1 DEMAND OUTLET NODE
 Branch List,8,HEATSYS1 SUPPLY BRANCHES,HEATSYS1,Plant Supply,4
   Branch,1,HEATSYS1 SUPPLY INLET BRANCH,HEATSYS1,Plant Supply,HEATSYS1 SUPPLY INLET NODE,HEATSYS1 PUMP-HEATSYS1 BOILERNODEVIACONNECTOR
   Branch,2,HEATSYS1 SUPPLY EQUIPMENT BRANCH,HEATSYS1,Plant Supply,HEATSYS1 PUMP-HEATSYS1 BOILERNODE,HEATSYS1 SUPPLY EQUIPMENT OUTLET NODE
   Branch,3,HEATSYS1 SUPPLY EQUIPMENT BYPASS BRANCH,HEATSYS1,Plant Supply,HEATSYS1 SUPPLY EQUIP BYPASS INLET NODE,HEATSYS1 SUPPLY EQUIP BYPASS OUTLET NODE
   Branch,4,HEATSYS1 SUPPLY OUTLET BRANCH,HEATSYS1,Plant Supply,HEATSYS1 SUPPLY MIXER-HEATSYS1 SUPPLY OUTLET PIPE,HEATSYS1 SUPPLY OUTLET NODE
 Branch List,9,TOWERWATERSYS DEMAND BRANCHES,TOWERWATERSYS,Condenser Demand,5
   Branch,1,TOWERWATERSYS DEMAND INLET BRANCH,TOWERWATERSYS,Condenser Demand,TOWERWATERSYS DEMAND INLET NODE,TOWERWATERSYS DEMAND INLET PIPE-TOWERWATERSYS DEMAND MIXER
   Branch,2,TOWERWATERSYS DEMAND LOAD BRANCH 1,TOWERWATERSYS,Condenser Demand,COOLSYS1 CHILLER WATER INLET NODE 1,COOLSYS1 CHILLER WATER OUTLET NODE 1
   Branch,3,TOWERWATERSYS DEMAND LOAD BRANCH 2,TOWERWATERSYS,Condenser Demand,COOLSYS1 CHILLER WATER INLET NODE 2,COOLSYS1 CHILLER WATER OUTLET NODE 2
   Branch,4,TOWERWATERSYS DEMAND BYPASS BRANCH,TOWERWATERSYS,Condenser Demand,TOWERWATERSYS DEMAND BYPASS PIPE INLET NODE,TOWERWATERSYS DEMAND BYPASS PIPE OUTLET NODE
   Branch,5,TOWERWATERSYS DEMAND OUTLET BRANCH,TOWERWATERSYS,Condenser Demand,TOWERWATERSYS DEMAND MIXER-TOWERWATERSYS DEMAND OUTLET PIPE,TOWERWATERSYS DEMAND OUTLET NODE
 Branch List,10,TOWERWATERSYS SUPPLY BRANCHES,TOWERWATERSYS,Condenser Supply,4
   Branch,1,TOWERWATERSYS SUPPLY INLET BRANCH,TOWERWATERSYS,Condenser Supply,TOWERWATERSYS SUPPLY INLET NODE,TOWERWATERSYS PUMP-TOWERWATERSYS COOLTOWERNODEVIACONNECTOR
   Branch,2,TOWERWATERSYS SUPPLY EQUIPMENT BRANCH,TOWERWATERSYS,Condenser Supply,TOWERWATERSYS PUMP-TOWERWATERSYS COOLTOWERNODE,TOWERWATERSYS SUPPLY EQUIPMENT OUTLET NODE
   Branch,3,TOWERWATERSYS SUPPLY EQUIPMENT BYPASS BRANCH,TOWERWATERSYS,Condenser Supply,TOWERWATERSYS SUPPLY EQUIP BYPASS INLET NODE,TOWERWATERSYS SUPPLY EQUIP BYPASS OUTLET NODE
   Branch,4,TOWERWATERSYS SUPPLY OUTLET BRANCH,TOWERWATERSYS,Condenser Supply,TOWERWATERSYS SUPPLY MIXER-TOWERWATERSYS SUPPLY OUTLET PIPE,TOWERWATERSYS SUPPLY OUTLET NODE
 Branch List,11,SWHSYS1 DEMAND BRANCHES,SWHSYS1,Plant Demand,6
   Branch,1,SWHSYS1 DEMAND INLET BRANCH,SWHSYS1,Plant Demand,SWHSYS1 DEMAND INLET NODE,SWHSYS1 DEMAND INLET PIPE-SWHSYS1 DEMAND MIXER
   Branch,2,SWHSYS1 DEMAND LOAD BRANCH 1,SWHSYS1,Plant Demand,CORE_BOTTOM WATER EQUIPMENT WATER INLET NODE,CORE_BOTTOM WATER EQUIPMENT WATER OUTLET NODE
   Branch,3,SWHSYS1 DEMAND LOAD BRANCH 2,SWHSYS1,Plant Demand,CORE_MID WATER EQUIPMENT WATER INLET NODE,CORE_MID WATER EQUIPMENT WATER OUTLET NODE
   Branch,4,SWHSYS1 DEMAND LOAD BRANCH 3,SWHSYS1,Plant Demand,CORE_TOP WATER EQUIPMENT WATER INLET NODE,CORE_TOP WATER EQUIPMENT WATER OUTLET NODE
   Branch,5,SWHSYS1 DEMAND BYPASS BRANCH,SWHSYS1,Plant Demand,SWHSYS1 DEMAND BYPASS PIPE INLET NODE,SWHSYS1 DEMAND BYPASS PIPE OUTLET NODE
   Branch,6,SWHSYS1 DEMAND OUTLET BRANCH,SWHSYS1,Plant Demand,SWHSYS1 DEMAND MIXER-SWHSYS1 DEMAND OUTLET PIPE,SWHSYS1 DEMAND OUTLET NODE
 Branch List,12,SWHSYS1 SUPPLY BRANCHES,SWHSYS1,Plant Supply,4
   Branch,1,SWHSYS1 SUPPLY INLET BRANCH,SWHSYS1,Plant Supply,SWHSYS1 SUPPLY INLET NODE,SWHSYS1 PUMP-SWHSYS1 WATER HEATERNODEVIACONNECTOR
   Branch,2,SWHSYS1 SUPPLY EQUIPMENT BRANCH,SWHSYS1,Plant Supply,SWHSYS1 PUMP-SWHSYS1 WATER HEATERNODE,SWHSYS1 SUPPLY EQUIPMENT OUTLET NODE
   Branch,3,SWHSYS1 SUPPLY EQUIPMENT BYPASS BRANCH,SWHSYS1,Plant Supply,SWHSYS1 SUPPLY EQUIP BYPASS INLET NODE,SWHSYS1 SUPPLY EQUIP BYPASS OUTLET NODE
   Branch,4,SWHSYS1 SUPPLY OUTLET BRANCH,SWHSYS1,Plant Supply,SWHSYS1 SUPPLY MIXER-SWHSYS1 SUPPLY OUTLET PIPE,SWHSYS1 SUPPLY OUTLET NODE
! ===============================================================
! <#Supply Air Paths>,<Number of Supply Air Paths>
 #Supply Air Paths,4
! <Supply Air Path>,<Supply Air Path Count>,<Supply Air Path Name>,<AirLoopHVAC Name>
! <#Components on Supply Air Path>,<Number of Components>
! <Supply Air Path Component>,<Component Count>,<Component Type>,<Component Name>,<AirLoopHVAC Name>
! <#Outlet Nodes on Supply Air Path Component>,<Number of Nodes>
! <Supply Air Path Component Nodes>,<Node Count>,<Component Type>,<Component Name>,<Inlet Node Name>,<Outlet Node Name>,<AirLoopHVAC Name>
 Supply Air Path,1,VAV_1,VAV_1
   #Components on Supply Air Path,1
   Supply Air Path Component,1,AIRLOOPHVAC:ZONESPLITTER,VAV_1 SUPPLY AIR SPLITTER,VAV_1
     #Outlet Nodes on Supply Air Path Component,5
     Supply Air Path Component Nodes,1,AIRLOOPHVAC:ZONESPLITTER,VAV_1 SUPPLY AIR SPLITTER,VAV_1 ZONE EQUIPMENT INLET NODE,CORE_BOTTOM VAV BOX INLET NODE NAME,VAV_1
     Supply Air Path Component Nodes,2,AIRLOOPHVAC:ZONESPLITTER,VAV_1 SUPPLY AIR SPLITTER,VAV_1 ZONE EQUIPMENT INLET NODE,PERIMETER_BOT_ZN_3 VAV BOX INLET NODE NAME,VAV_1
     Supply Air Path Component Nodes,3,AIRLOOPHVAC:ZONESPLITTER,VAV_1 SUPPLY AIR SPLITTER,VAV_1 ZONE EQUIPMENT INLET NODE,PERIMETER_BOT_ZN_2 VAV BOX INLET NODE NAME,VAV_1
     Supply Air Path Component Nodes,4,AIRLOOPHVAC:ZONESPLITTER,VAV_1 SUPPLY AIR SPLITTER,VAV_1 ZONE EQUIPMENT INLET NODE,PERIMETER_BOT_ZN_1 VAV BOX INLET NODE NAME,VAV_1
     Supply Air Path Component Nodes,5,AIRLOOPHVAC:ZONESPLITTER,VAV_1 SUPPLY AIR SPLITTER,VAV_1 ZONE EQUIPMENT INLET NODE,PERIMETER_BOT_ZN_4 VAV BOX INLET NODE NAME,VAV_1
! <#Nodes on Supply Air Path>,<Number of Nodes>
! <Supply Air Path Node>,<Node Type>,<Node Count>,<Node Name>,<AirLoopHVAC Name>
#Nodes on Supply Air Path,6
   Supply Air Path Node,Inlet Node,1,VAV_1 ZONE EQUIPMENT INLET NODE,VAV_1
   Supply Air Path Node,Outlet Node,2,CORE_BOTTOM VAV BOX INLET NODE NAME,VAV_1
   Supply Air Path Node,Outlet Node,3,PERIMETER_BOT_ZN_3 VAV BOX INLET NODE NAME,VAV_1
   Supply Air Path Node,Outlet Node,4,PERIMETER_BOT_ZN_2 VAV BOX INLET NODE NAME,VAV_1
   Supply Air Path Node,Outlet Node,5,PERIMETER_BOT_ZN_1 VAV BOX INLET NODE NAME,VAV_1
   Supply Air Path Node,Outlet Node,6,PERIMETER_BOT_ZN_4 VAV BOX INLET NODE NAME,VAV_1
 Supply Air Path,2,VAV_2,VAV_2
   #Components on Supply Air Path,1
   Supply Air Path Component,1,AIRLOOPHVAC:ZONESPLITTER,VAV_2 SUPPLY AIR SPLITTER,VAV_2
     #Outlet Nodes on Supply Air Path Component,5
     Supply Air Path Component Nodes,1,AIRLOOPHVAC:ZONESPLITTER,VAV_2 SUPPLY AIR SPLITTER,VAV_2 ZONE EQUIPMENT INLET NODE,CORE_MID VAV BOX INLET NODE NAME,VAV_2
     Supply Air Path Component Nodes,2,AIRLOOPHVAC:ZONESPLITTER,VAV_2 SUPPLY AIR SPLITTER,VAV_2 ZONE EQUIPMENT INLET NODE,PERIMETER_MID_ZN_3 VAV BOX INLET NODE NAME,VAV_2
     Supply Air Path Component Nodes,3,AIRLOOPHVAC:ZONESPLITTER,VAV_2 SUPPLY AIR SPLITTER,VAV_2 ZONE EQUIPMENT INLET NODE,PERIMETER_MID_ZN_2 VAV BOX INLET NODE NAME,VAV_2
     Supply Air Path Component Nodes,4,AIRLOOPHVAC:ZONESPLITTER,VAV_2 SUPPLY AIR SPLITTER,VAV_2 ZONE EQUIPMENT INLET NODE,PERIMETER_MID_ZN_1 VAV BOX INLET NODE NAME,VAV_2
     Supply Air Path Component Nodes,5,AIRLOOPHVAC:ZONESPLITTER,VAV_2 SUPPLY AIR SPLITTER,VAV_2 ZONE EQUIPMENT INLET NODE,PERIMETER_MID_ZN_4 VAV BOX INLET NODE NAME,VAV_2
! <#Nodes on Supply Air Path>,<Number of Nodes>
! <Supply Air Path Node>,<Node Type>,<Node Count>,<Node Name>,<AirLoopHVAC Name>
#Nodes on Supply Air Path,6
   Supply Air Path Node,Inlet Node,1,VAV_2 ZONE EQUIPMENT INLET NODE,VAV_2
   Supply Air Path Node,Outlet Node,2,CORE_MID VAV BOX INLET NODE NAME,VAV_2
   Supply Air Path Node,Outlet Node,3,PERIMETER_MID_ZN_3 VAV BOX INLET NODE NAME,VAV_2
   Supply Air Path Node,Outlet Node,4,PERIMETER_MID_ZN_2 VAV BOX INLET NODE NAME,VAV_2
   Supply Air Path Node,Outlet Node,5,PERIMETER_MID_ZN_1 VAV BOX INLET NODE NAME,VAV_2
   Supply Air Path Node,Outlet Node,6,PERIMETER_MID_ZN_4 VAV BOX INLET NODE NAME,VAV_2
 Supply Air Path,3,VAV_3,VAV_3
   #Components on Supply Air Path,1
   Supply Air Path Component,1,AIRLOOPHVAC:ZONESPLITTER,VAV_3 SUPPLY AIR SPLITTER,VAV_3
     #Outlet Nodes on Supply Air Path Component,5
     Supply Air Path Component Nodes,1,AIRLOOPHVAC:ZONESPLITTER,VAV_3 SUPPLY AIR SPLITTER,VAV_3 ZONE EQUIPMENT INLET NODE,CORE_TOP VAV BOX INLET NODE NAME,VAV_3
     Supply Air Path Component Nodes,2,AIRLOOPHVAC:ZONESPLITTER,VAV_3 SUPPLY AIR SPLITTER,VAV_3 ZONE EQUIPMENT INLET NODE,PERIMETER_TOP_ZN_3 VAV BOX INLET NODE NAME,VAV_3
     Supply Air Path Component Nodes,3,AIRLOOPHVAC:ZONESPLITTER,VAV_3 SUPPLY AIR SPLITTER,VAV_3 ZONE EQUIPMENT INLET NODE,PERIMETER_TOP_ZN_2 VAV BOX INLET NODE NAME,VAV_3
     Supply Air Path Component Nodes,4,AIRLOOPHVAC:ZONESPLITTER,VAV_3 SUPPLY AIR SPLITTER,VAV_3 ZONE EQUIPMENT INLET NODE,PERIMETER_TOP_ZN_1 VAV BOX INLET NODE NAME,VAV_3
     Supply Air Path Component Nodes,5,AIRLOOPHVAC:ZONESPLITTER,VAV_3 SUPPLY AIR SPLITTER,VAV_3 ZONE EQUIPMENT INLET NODE,PERIMETER_TOP_ZN_4 VAV BOX INLET NODE NAME,VAV_3
! <#Nodes on Supply Air Path>,<Number of Nodes>
! <Supply Air Path Node>,<Node Type>,<Node Count>,<Node Name>,<AirLoopHVAC Name>
#Nodes on Supply Air Path,6
   Supply Air Path Node,Inlet Node,1,VAV_3 ZONE EQUIPMENT INLET NODE,VAV_3
   Supply Air Path Node,Outlet Node,2,CORE_TOP VAV BOX INLET NODE NAME,VAV_3
   Supply Air Path Node,Outlet Node,3,PERIMETER_TOP_ZN_3 VAV BOX INLET NODE NAME,VAV_3
   Supply Air Path Node,Outlet Node,4,PERIMETER_TOP_ZN_2 VAV BOX INLET NODE NAME,VAV_3
   Supply Air Path Node,Outlet Node,5,PERIMETER_TOP_ZN_1 VAV BOX INLET NODE NAME,VAV_3
   Supply Air Path Node,Outlet Node,6,PERIMETER_TOP_ZN_4 VAV BOX INLET NODE NAME,VAV_3
 Supply Air Path,4,VAV_5,VAV_5
   #Components on Supply Air Path,1
   Supply Air Path Component,1,AIRLOOPHVAC:ZONESPLITTER,VAV_5 SUPPLY AIR SPLITTER,VAV_5
     #Outlet Nodes on Supply Air Path Component,1
     Supply Air Path Component Nodes,1,AIRLOOPHVAC:ZONESPLITTER,VAV_5 SUPPLY AIR SPLITTER,VAV_5 ZONE EQUIPMENT INLET NODE,BASEMENT VAV BOX INLET NODE NAME,VAV_5
! <#Nodes on Supply Air Path>,<Number of Nodes>
! <Supply Air Path Node>,<Node Type>,<Node Count>,<Node Name>,<AirLoopHVAC Name>
#Nodes on Supply Air Path,2
   Supply Air Path Node,Inlet Node,1,VAV_5 ZONE EQUIPMENT INLET NODE,VAV_5
   Supply Air Path Node,Outlet Node,2,BASEMENT VAV BOX INLET NODE NAME,VAV_5
! ===============================================================
! <#Return Air Paths>,<Number of Return Air Paths>
 #Return Air Paths,4
! <Return Air Path>,<Return Air Path Count>,<Return Air Path Name>,<AirLoopHVAC Name>
! <#Components on Return Air Path>,<Number of Components>
! <Return Air Path Component>,<Component Count>,<Component Type>,<Component Name>,<AirLoopHVAC Name>
! <#Inlet Nodes on Return Air Path Component>,<Number of Nodes>
! <Return Air Path Component Nodes>,<Node Count>,<Component Type>,<Component Name>,<Inlet Node Name>,<Outlet Node Name>,<AirLoopHVAC Name>
 Return Air Path,1,VAV_1 RETURN AIR PATH,VAV_1
   #Components on Return Air Path,2
   Return Air Path Component,1,AIRLOOPHVAC:RETURNPLENUM,VAV_1 RETURN PLENUM,VAV_1
   Return Air Path Component,2,AIRLOOPHVAC:ZONEMIXER,VAV_1 RETURN AIR MIXER,VAV_1
     #Inlet Nodes on Return Air Path Component,1
     Return Air Path Component Nodes,1,AIRLOOPHVAC:ZONEMIXER,VAV_1 RETURN AIR MIXER,GROUNDFLOOR_PLENUMPLENUMOUTLETNODE,VAV_1 ZONE EQUIPMENT OUTLET NODE,VAV_1
! <#Nodes on Return Air Path>,<Number of Nodes>
! <Return Air Path Node>,<Node Type>,<Node Count>,<Node Name>,<AirLoopHVAC Name>
   #Nodes on Return Air Path,7
   Return Air Path Node,Outlet Node,1,VAV_1 ZONE EQUIPMENT OUTLET NODE,VAV_1
   Return Air Path Node,Inlet Node,2,GROUNDFLOOR_PLENUMPLENUMOUTLETNODE,VAV_1
   Return Air Path Node,Inlet Node,3,CORE_BOTTOM RETURN AIR NODE NAME,VAV_1
   Return Air Path Node,Inlet Node,4,PERIMETER_BOT_ZN_3 RETURN AIR NODE NAME,VAV_1
   Return Air Path Node,Inlet Node,5,PERIMETER_BOT_ZN_2 RETURN AIR NODE NAME,VAV_1
   Return Air Path Node,Inlet Node,6,PERIMETER_BOT_ZN_1 RETURN AIR NODE NAME,VAV_1
   Return Air Path Node,Inlet Node,7,PERIMETER_BOT_ZN_4 RETURN AIR NODE NAME,VAV_1
 Return Air Path,2,VAV_2 RETURN AIR PATH,VAV_2
   #Components on Return Air Path,2
   Return Air Path Component,1,AIRLOOPHVAC:RETURNPLENUM,VAV_2 RETURN PLENUM,VAV_2
   Return Air Path Component,2,AIRLOOPHVAC:ZONEMIXER,VAV_2 RETURN AIR MIXER,VAV_2
     #Inlet Nodes on Return Air Path Component,1
     Return Air Path Component Nodes,1,AIRLOOPHVAC:ZONEMIXER,VAV_2 RETURN AIR MIXER,MIDFLOOR_PLENUMPLENUMOUTLETNODE,VAV_2 ZONE EQUIPMENT OUTLET NODE,VAV_2
! <#Nodes on Return Air Path>,<Number of Nodes>
! <Return Air Path Node>,<Node Type>,<Node Count>,<Node Name>,<AirLoopHVAC Name>
   #Nodes on Return Air Path,7
   Return Air Path Node,Outlet Node,1,VAV_2 ZONE EQUIPMENT OUTLET NODE,VAV_2
   Return Air Path Node,Inlet Node,2,MIDFLOOR_PLENUMPLENUMOUTLETNODE,VAV_2
   Return Air Path Node,Inlet Node,3,CORE_MID RETURN AIR NODE NAME,VAV_2
   Return Air Path Node,Inlet Node,4,PERIMETER_MID_ZN_3 RETURN AIR NODE NAME,VAV_2
   Return Air Path Node,Inlet Node,5,PERIMETER_MID_ZN_2 RETURN AIR NODE NAME,VAV_2
   Return Air Path Node,Inlet Node,6,PERIMETER_MID_ZN_1 RETURN AIR NODE NAME,VAV_2
   Return Air Path Node,Inlet Node,7,PERIMETER_MID_ZN_4 RETURN AIR NODE NAME,VAV_2
 Return Air Path,3,VAV_3 RETURN AIR PATH,VAV_3
   #Components on Return Air Path,2
   Return Air Path Component,1,AIRLOOPHVAC:RETURNPLENUM,VAV_3 RETURN PLENUM,VAV_3
   Return Air Path Component,2,AIRLOOPHVAC:ZONEMIXER,VAV_3 RETURN AIR MIXER,VAV_3
     #Inlet Nodes on Return Air Path Component,1
     Return Air Path Component Nodes,1,AIRLOOPHVAC:ZONEMIXER,VAV_3 RETURN AIR MIXER,TOPFLOOR_PLENUMPLENUMOUTLETNODE,VAV_3 ZONE EQUIPMENT OUTLET NODE,VAV_3
! <#Nodes on Return Air Path>,<Number of Nodes>
! <Return Air Path Node>,<Node Type>,<Node Count>,<Node Name>,<AirLoopHVAC Name>
   #Nodes on Return Air Path,7
   Return Air Path Node,Outlet Node,1,VAV_3 ZONE EQUIPMENT OUTLET NODE,VAV_3
   Return Air Path Node,Inlet Node,2,TOPFLOOR_PLENUMPLENUMOUTLETNODE,VAV_3
   Return Air Path Node,Inlet Node,3,CORE_TOP RETURN AIR NODE NAME,VAV_3
   Return Air Path Node,Inlet Node,4,PERIMETER_TOP_ZN_3 RETURN AIR NODE NAME,VAV_3
   Return Air Path Node,Inlet Node,5,PERIMETER_TOP_ZN_2 RETURN AIR NODE NAME,VAV_3
   Return Air Path Node,Inlet Node,6,PERIMETER_TOP_ZN_1 RETURN AIR NODE NAME,VAV_3
   Return Air Path Node,Inlet Node,7,PERIMETER_TOP_ZN_4 RETURN AIR NODE NAME,VAV_3
 Return Air Path,4,VAV_5 RETURN AIR PATH,VAV_5
   #Components on Return Air Path,1
   Return Air Path Component,1,AIRLOOPHVAC:ZONEMIXER,VAV_5 RETURN AIR MIXER,VAV_5
     #Inlet Nodes on Return Air Path Component,1
     Return Air Path Component Nodes,1,AIRLOOPHVAC:ZONEMIXER,VAV_5 RETURN AIR MIXER,BASEMENT RETURN AIR NODE NAME,VAV_5 ZONE EQUIPMENT OUTLET NODE,VAV_5
! <#Nodes on Return Air Path>,<Number of Nodes>
! <Return Air Path Node>,<Node Type>,<Node Count>,<Node Name>,<AirLoopHVAC Name>
   #Nodes on Return Air Path,2
   Return Air Path Node,Outlet Node,1,VAV_5 ZONE EQUIPMENT OUTLET NODE,VAV_5
   Return Air Path Node,Inlet Node,2,BASEMENT RETURN AIR NODE NAME,VAV_5
! ===============================================================
! #Outdoor Air Nodes,<Number of Outdoor Air Nodes>
 #Outdoor Air Nodes,5
! <Outdoor Air Node>,<NodeNumber>,<Node Name>
 Outdoor Air Node,17,VAV_1_OAINLET NODE
 Outdoor Air Node,18,VAV_2_OAINLET NODE
 Outdoor Air Node,19,VAV_3_OAINLET NODE
 Outdoor Air Node,20,VAV_5_OAINLET NODE
 Outdoor Air Node,157,TOWERWATERSYS COOLTOWER OA REF NODE
! ===============================================================
! <#Component Sets>,<Number of Component Sets>
 #Component Sets,110
! <Component Set>,<Component Set Count>,<Parent Object Type>,<Parent Object Name>,<Component Type>,<Component Name>,<Inlet Node ID>,<Outlet Node ID>,<Description>
 Component Set,1,BRANCH,VAV_1 AIR LOOP MAIN BRANCH,AIRLOOPHVAC:OUTDOORAIRSYSTEM,VAV_1_OA,VAV_1 SUPPLY EQUIPMENT INLET NODE,VAV_1_OA-VAV_1_COOLCNODE,Air Nodes
 Component Set,2,BRANCH,VAV_1 AIR LOOP MAIN BRANCH,COIL:COOLING:WATER,VAV_1_COOLC,VAV_1_OA-VAV_1_COOLCNODE,VAV_1_COOLC-VAV_1_HEATCNODE,Air Nodes
 Component Set,3,BRANCH,VAV_1 AIR LOOP MAIN BRANCH,COIL:HEATING:WATER,VAV_1_HEATC,VAV_1_COOLC-VAV_1_HEATCNODE,VAV_1_HEATC-VAV_1_FANNODE,Air Nodes
 Component Set,4,BRANCH,VAV_1 AIR LOOP MAIN BRANCH,FAN:VARIABLEVOLUME,VAV_1_FAN,VAV_1_HEATC-VAV_1_FANNODE,VAV_1 SUPPLY EQUIPMENT OUTLET NODE,Air Nodes
 Component Set,5,BRANCH,VAV_2 AIR LOOP MAIN BRANCH,AIRLOOPHVAC:OUTDOORAIRSYSTEM,VAV_2_OA,VAV_2 SUPPLY EQUIPMENT INLET NODE,VAV_2_OA-VAV_2_COOLCNODE,Air Nodes
 Component Set,6,BRANCH,VAV_2 AIR LOOP MAIN BRANCH,COIL:COOLING:WATER,VAV_2_COOLC,VAV_2_OA-VAV_2_COOLCNODE,VAV_2_COOLC-VAV_2_HEATCNODE,Air Nodes
 Component Set,7,BRANCH,VAV_2 AIR LOOP MAIN BRANCH,COIL:HEATING:WATER,VAV_2_HEATC,VAV_2_COOLC-VAV_2_HEATCNODE,VAV_2_HEATC-VAV_2_FANNODE,Air Nodes
 Component Set,8,BRANCH,VAV_2 AIR LOOP MAIN BRANCH,FAN:VARIABLEVOLUME,VAV_2_FAN,VAV_2_HEATC-VAV_2_FANNODE,VAV_2 SUPPLY EQUIPMENT OUTLET NODE,Air Nodes
 Component Set,9,BRANCH,VAV_3 AIR LOOP MAIN BRANCH,AIRLOOPHVAC:OUTDOORAIRSYSTEM,VAV_3_OA,VAV_3 SUPPLY EQUIPMENT INLET NODE,VAV_3_OA-VAV_3_COOLCNODE,Air Nodes
 Component Set,10,BRANCH,VAV_3 AIR LOOP MAIN BRANCH,COIL:COOLING:WATER,VAV_3_COOLC,VAV_3_OA-VAV_3_COOLCNODE,VAV_3_COOLC-VAV_3_HEATCNODE,Air Nodes
 Component Set,11,BRANCH,VAV_3 AIR LOOP MAIN BRANCH,COIL:HEATING:WATER,VAV_3_HEATC,VAV_3_COOLC-VAV_3_HEATCNODE,VAV_3_HEATC-VAV_3_FANNODE,Air Nodes
 Component Set,12,BRANCH,VAV_3 AIR LOOP MAIN BRANCH,FAN:VARIABLEVOLUME,VAV_3_FAN,VAV_3_HEATC-VAV_3_FANNODE,VAV_3 SUPPLY EQUIPMENT OUTLET NODE,Air Nodes
 Component Set,13,BRANCH,VAV_5 AIR LOOP MAIN BRANCH,AIRLOOPHVAC:OUTDOORAIRSYSTEM,VAV_5_OA,VAV_5 SUPPLY EQUIPMENT INLET NODE,VAV_5_OA-VAV_5_COOLCNODE,Air Nodes
 Component Set,14,BRANCH,VAV_5 AIR LOOP MAIN BRANCH,COIL:COOLING:WATER,VAV_5_COOLC,VAV_5_OA-VAV_5_COOLCNODE,VAV_5_COOLC-VAV_5_HEATCNODE,Air Nodes
 Component Set,15,BRANCH,VAV_5 AIR LOOP MAIN BRANCH,COIL:HEATING:WATER,VAV_5_HEATC,VAV_5_COOLC-VAV_5_HEATCNODE,VAV_5_HEATC-VAV_5_FANNODE,Air Nodes
 Component Set,16,BRANCH,VAV_5 AIR LOOP MAIN BRANCH,FAN:VARIABLEVOLUME,VAV_5_FAN,VAV_5_HEATC-VAV_5_FANNODE,VAV_5 SUPPLY EQUIPMENT OUTLET NODE,Air Nodes
 Component Set,17,BRANCH,COOLSYS1 DEMAND BYPASS BRANCH,PIPE:ADIABATIC,COOLSYS1 DEMAND BYPASS PIPE,COOLSYS1 DEMAND BYPASS PIPE INLET NODE,COOLSYS1 DEMAND BYPASS PIPE OUTLET NODE,Pipe Nodes
 Component Set,18,BRANCH,COOLSYS1 DEMAND INLET BRANCH,PIPE:ADIABATIC,COOLSYS1 DEMAND INLET PIPE,COOLSYS1 DEMAND INLET NODE,COOLSYS1 DEMAND INLET PIPE-COOLSYS1 DEMAND MIXER,Pipe Nodes
 Component Set,19,BRANCH,COOLSYS1 DEMAND LOAD BRANCH 1,COIL:COOLING:WATER,VAV_5_COOLC,VAV_5_COOLCDEMAND INLET NODE,VAV_5_COOLCDEMAND OUTLET NODE,Water Nodes
 Component Set,20,BRANCH,COOLSYS1 DEMAND LOAD BRANCH 2,COIL:COOLING:WATER,VAV_1_COOLC,VAV_1_COOLCDEMAND INLET NODE,VAV_1_COOLCDEMAND OUTLET NODE,Water Nodes
 Component Set,21,BRANCH,COOLSYS1 DEMAND LOAD BRANCH 3,COIL:COOLING:WATER,VAV_2_COOLC,VAV_2_COOLCDEMAND INLET NODE,VAV_2_COOLCDEMAND OUTLET NODE,Water Nodes
 Component Set,22,BRANCH,COOLSYS1 DEMAND LOAD BRANCH 4,COIL:COOLING:WATER,VAV_3_COOLC,VAV_3_COOLCDEMAND INLET NODE,VAV_3_COOLCDEMAND OUTLET NODE,Water Nodes
 Component Set,23,BRANCH,COOLSYS1 DEMAND OUTLET BRANCH,PIPE:ADIABATIC,COOLSYS1 DEMAND OUTLET PIPE,COOLSYS1 DEMAND MIXER-COOLSYS1 DEMAND OUTLET PIPE,COOLSYS1 DEMAND OUTLET NODE,Pipe Nodes
 Component Set,24,BRANCH,COOLSYS1 SUPPLY EQUIPMENT BRANCH 1,CHILLER:ELECTRIC:REFORMULATEDEIR,COOLSYS1 CHILLER 1,COOLSYS1 PUMP-COOLSYS1 CHILLERNODE 1,COOLSYS1 SUPPLY EQUIPMENT OUTLET NODE 1,Chilled Water Nodes
 Component Set,25,BRANCH,COOLSYS1 SUPPLY EQUIPMENT BRANCH 2,CHILLER:ELECTRIC:REFORMULATEDEIR,COOLSYS1 CHILLER 2,COOLSYS1 PUMP-COOLSYS1 CHILLERNODE 2,COOLSYS1 SUPPLY EQUIPMENT OUTLET NODE 2,Chilled Water Nodes
 Component Set,26,BRANCH,COOLSYS1 SUPPLY EQUIPMENT BYPASS BRANCH,PIPE:ADIABATIC,COOLSYS1 SUPPLY EQUIPMENT BYPASS PIPE,COOLSYS1 SUPPLY EQUIP BYPASS INLET NODE,COOLSYS1 SUPPLY EQUIP BYPASS OUTLET NODE,Pipe Nodes
 Component Set,27,BRANCH,COOLSYS1 SUPPLY INLET BRANCH,PUMP:VARIABLESPEED,COOLSYS1 PUMP,COOLSYS1 SUPPLY INLET NODE,COOLSYS1 PUMP-COOLSYS1 CHILLERNODEVIACONNECTOR,Water Nodes
 Component Set,28,BRANCH,COOLSYS1 SUPPLY OUTLET BRANCH,PIPE:ADIABATIC,COOLSYS1 SUPPLY OUTLET PIPE,COOLSYS1 SUPPLY MIXER-COOLSYS1 SUPPLY OUTLET PIPE,COOLSYS1 SUPPLY OUTLET NODE,Pipe Nodes
 Component Set,29,BRANCH,HEATSYS1 DEMAND BYPASS BRANCH,PIPE:ADIABATIC,HEATSYS1 DEMAND BYPASS PIPE,HEATSYS1 DEMAND BYPASS PIPE INLET NODE,HEATSYS1 DEMAND BYPASS PIPE OUTLET NODE,Pipe Nodes
 Component Set,30,BRANCH,HEATSYS1 DEMAND INLET BRANCH,PIPE:ADIABATIC,HEATSYS1 DEMAND INLET PIPE,HEATSYS1 DEMAND INLET NODE,HEATSYS1 DEMAND INLET PIPE-HEATSYS1 DEMAND MIXER,Pipe Nodes
 Component Set,31,BRANCH,HEATSYS1 DEMAND LOAD BRANCH 1,COIL:HEATING:WATER,BASEMENT VAV BOX REHEAT COIL,BASEMENT VAV BOX REHEAT COILDEMAND INLET NODE,BASEMENT VAV BOX REHEAT COILDEMAND OUTLET NODE,Water Nodes
 Component Set,32,BRANCH,HEATSYS1 DEMAND LOAD BRANCH 10,COIL:HEATING:WATER,PERIMETER_MID_ZN_2 VAV BOX REHEAT COIL,PERIMETER_MID_ZN_2 VAV BOX REHEAT COILDEMAND INLET NODE,PERIMETER_MID_ZN_2 VAV BOX REHEAT COILDEMAND OUTLET NODE,Water Nodes
 Component Set,33,BRANCH,HEATSYS1 DEMAND LOAD BRANCH 11,COIL:HEATING:WATER,PERIMETER_MID_ZN_1 VAV BOX REHEAT COIL,PERIMETER_MID_ZN_1 VAV BOX REHEAT COILDEMAND INLET NODE,PERIMETER_MID_ZN_1 VAV BOX REHEAT COILDEMAND OUTLET NODE,Water Nodes
 Component Set,34,BRANCH,HEATSYS1 DEMAND LOAD BRANCH 12,COIL:HEATING:WATER,PERIMETER_MID_ZN_4 VAV BOX REHEAT COIL,PERIMETER_MID_ZN_4 VAV BOX REHEAT COILDEMAND INLET NODE,PERIMETER_MID_ZN_4 VAV BOX REHEAT COILDEMAND OUTLET NODE,Water Nodes
 Component Set,35,BRANCH,HEATSYS1 DEMAND LOAD BRANCH 13,COIL:HEATING:WATER,PERIMETER_TOP_ZN_3 VAV BOX REHEAT COIL,PERIMETER_TOP_ZN_3 VAV BOX REHEAT COILDEMAND INLET NODE,PERIMETER_TOP_ZN_3 VAV BOX REHEAT COILDEMAND OUTLET NODE,Water Nodes
 Component Set,36,BRANCH,HEATSYS1 DEMAND LOAD BRANCH 14,COIL:HEATING:WATER,PERIMETER_TOP_ZN_2 VAV BOX REHEAT COIL,PERIMETER_TOP_ZN_2 VAV BOX REHEAT COILDEMAND INLET NODE,PERIMETER_TOP_ZN_2 VAV BOX REHEAT COILDEMAND OUTLET NODE,Water Nodes
 Component Set,37,BRANCH,HEATSYS1 DEMAND LOAD BRANCH 15,COIL:HEATING:WATER,PERIMETER_TOP_ZN_1 VAV BOX REHEAT COIL,PERIMETER_TOP_ZN_1 VAV BOX REHEAT COILDEMAND INLET NODE,PERIMETER_TOP_ZN_1 VAV BOX REHEAT COILDEMAND OUTLET NODE,Water Nodes
 Component Set,38,BRANCH,HEATSYS1 DEMAND LOAD BRANCH 16,COIL:HEATING:WATER,PERIMETER_TOP_ZN_4 VAV BOX REHEAT COIL,PERIMETER_TOP_ZN_4 VAV BOX REHEAT COILDEMAND INLET NODE,PERIMETER_TOP_ZN_4 VAV BOX REHEAT COILDEMAND OUTLET NODE,Water Nodes
 Component Set,39,BRANCH,HEATSYS1 DEMAND LOAD BRANCH 17,COIL:HEATING:WATER,VAV_5_HEATC,VAV_5_HEATCDEMAND INLET NODE,VAV_5_HEATCDEMAND OUTLET NODE,Water Nodes
 Component Set,40,BRANCH,HEATSYS1 DEMAND LOAD BRANCH 18,COIL:HEATING:WATER,VAV_1_HEATC,VAV_1_HEATCDEMAND INLET NODE,VAV_1_HEATCDEMAND OUTLET NODE,Water Nodes
 Component Set,41,BRANCH,HEATSYS1 DEMAND LOAD BRANCH 19,COIL:HEATING:WATER,VAV_2_HEATC,VAV_2_HEATCDEMAND INLET NODE,VAV_2_HEATCDEMAND OUTLET NODE,Water Nodes
 Component Set,42,BRANCH,HEATSYS1 DEMAND LOAD BRANCH 2,COIL:HEATING:WATER,CORE_BOTTOM VAV BOX REHEAT COIL,CORE_BOTTOM VAV BOX REHEAT COILDEMAND INLET NODE,CORE_BOTTOM VAV BOX REHEAT COILDEMAND OUTLET NODE,Water Nodes
 Component Set,43,BRANCH,HEATSYS1 DEMAND LOAD BRANCH 20,COIL:HEATING:WATER,VAV_3_HEATC,VAV_3_HEATCDEMAND INLET NODE,VAV_3_HEATCDEMAND OUTLET NODE,Water Nodes
 Component Set,44,BRANCH,HEATSYS1 DEMAND LOAD BRANCH 3,COIL:HEATING:WATER,CORE_MID VAV BOX REHEAT COIL,CORE_MID VAV BOX REHEAT COILDEMAND INLET NODE,CORE_MID VAV BOX REHEAT COILDEMAND OUTLET NODE,Water Nodes
 Component Set,45,BRANCH,HEATSYS1 DEMAND LOAD BRANCH 4,COIL:HEATING:WATER,CORE_TOP VAV BOX REHEAT COIL,CORE_TOP VAV BOX REHEAT COILDEMAND INLET NODE,CORE_TOP VAV BOX REHEAT COILDEMAND OUTLET NODE,Water Nodes
 Component Set,46,BRANCH,HEATSYS1 DEMAND LOAD BRANCH 5,COIL:HEATING:WATER,PERIMETER_BOT_ZN_3 VAV BOX REHEAT COIL,PERIMETER_BOT_ZN_3 VAV BOX REHEAT COILDEMAND INLET NODE,PERIMETER_BOT_ZN_3 VAV BOX REHEAT COILDEMAND OUTLET NODE,Water Nodes
 Component Set,47,BRANCH,HEATSYS1 DEMAND LOAD BRANCH 6,COIL:HEATING:WATER,PERIMETER_BOT_ZN_2 VAV BOX REHEAT COIL,PERIMETER_BOT_ZN_2 VAV BOX REHEAT COILDEMAND INLET NODE,PERIMETER_BOT_ZN_2 VAV BOX REHEAT COILDEMAND OUTLET NODE,Water Nodes
 Component Set,48,BRANCH,HEATSYS1 DEMAND LOAD BRANCH 7,COIL:HEATING:WATER,PERIMETER_BOT_ZN_1 VAV BOX REHEAT COIL,PERIMETER_BOT_ZN_1 VAV BOX REHEAT COILDEMAND INLET NODE,PERIMETER_BOT_ZN_1 VAV BOX REHEAT COILDEMAND OUTLET NODE,Water Nodes
 Component Set,49,BRANCH,HEATSYS1 DEMAND LOAD BRANCH 8,COIL:HEATING:WATER,PERIMETER_BOT_ZN_4 VAV BOX REHEAT COIL,PERIMETER_BOT_ZN_4 VAV BOX REHEAT COILDEMAND INLET NODE,PERIMETER_BOT_ZN_4 VAV BOX REHEAT COILDEMAND OUTLET NODE,Water Nodes
 Component Set,50,BRANCH,HEATSYS1 DEMAND LOAD BRANCH 9,COIL:HEATING:WATER,PERIMETER_MID_ZN_3 VAV BOX REHEAT COIL,PERIMETER_MID_ZN_3 VAV BOX REHEAT COILDEMAND INLET NODE,PERIMETER_MID_ZN_3 VAV BOX REHEAT COILDEMAND OUTLET NODE,Water Nodes
 Component Set,51,BRANCH,HEATSYS1 DEMAND OUTLET BRANCH,PIPE:ADIABATIC,HEATSYS1 DEMAND OUTLET PIPE,HEATSYS1 DEMAND MIXER-HEATSYS1 DEMAND OUTLET PIPE,HEATSYS1 DEMAND OUTLET NODE,Pipe Nodes
 Component Set,52,BRANCH,HEATSYS1 SUPPLY EQUIPMENT BRANCH,BOILER:HOTWATER,HEATSYS1 BOILER,HEATSYS1 PUMP-HEATSYS1 BOILERNODE,HEATSYS1 SUPPLY EQUIPMENT OUTLET NODE,Hot Water Nodes
 Component Set,53,BRANCH,HEATSYS1 SUPPLY EQUIPMENT BYPASS BRANCH,PIPE:ADIABATIC,HEATSYS1 SUPPLY EQUIPMENT BYPASS PIPE,HEATSYS1 SUPPLY EQUIP BYPASS INLET NODE,HEATSYS1 SUPPLY EQUIP BYPASS OUTLET NODE,Pipe Nodes
 Component Set,54,BRANCH,HEATSYS1 SUPPLY INLET BRANCH,PUMP:VARIABLESPEED,HEATSYS1 PUMP,HEATSYS1 SUPPLY INLET NODE,HEATSYS1 PUMP-HEATSYS1 BOILERNODEVIACONNECTOR,Water Nodes
 Component Set,55,BRANCH,HEATSYS1 SUPPLY OUTLET BRANCH,PIPE:ADIABATIC,HEATSYS1 SUPPLY OUTLET PIPE,HEATSYS1 SUPPLY MIXER-HEATSYS1 SUPPLY OUTLET PIPE,HEATSYS1 SUPPLY OUTLET NODE,Pipe Nodes
 Component Set,56,BRANCH,TOWERWATERSYS DEMAND BYPASS BRANCH,PIPE:ADIABATIC,TOWERWATERSYS DEMAND BYPASS PIPE,TOWERWATERSYS DEMAND BYPASS PIPE INLET NODE,TOWERWATERSYS DEMAND BYPASS PIPE OUTLET NODE,Pipe Nodes
 Component Set,57,BRANCH,TOWERWATERSYS DEMAND INLET BRANCH,PIPE:ADIABATIC,TOWERWATERSYS DEMAND INLET PIPE,TOWERWATERSYS DEMAND INLET NODE,TOWERWATERSYS DEMAND INLET PIPE-TOWERWATERSYS DEMAND MIXER,Pipe Nodes
 Component Set,58,BRANCH,TOWERWATERSYS DEMAND LOAD BRANCH 1,CHILLER:ELECTRIC:REFORMULATEDEIR,COOLSYS1 CHILLER 1,COOLSYS1 CHILLER WATER INLET NODE 1,COOLSYS1 CHILLER WATER OUTLET NODE 1,Condenser Water Nodes
 Component Set,59,BRANCH,TOWERWATERSYS DEMAND LOAD BRANCH 2,CHILLER:ELECTRIC:REFORMULATEDEIR,COOLSYS1 CHILLER 2,COOLSYS1 CHILLER WATER INLET NODE 2,COOLSYS1 CHILLER WATER OUTLET NODE 2,Condenser Water Nodes
 Component Set,60,BRANCH,TOWERWATERSYS DEMAND OUTLET BRANCH,PIPE:ADIABATIC,TOWERWATERSYS DEMAND OUTLET PIPE,TOWERWATERSYS DEMAND MIXER-TOWERWATERSYS DEMAND OUTLET PIPE,TOWERWATERSYS DEMAND OUTLET NODE,Pipe Nodes
 Component Set,61,BRANCH,TOWERWATERSYS SUPPLY EQUIPMENT BRANCH,COOLINGTOWER:SINGLESPEED,TOWERWATERSYS COOLTOWER,TOWERWATERSYS PUMP-TOWERWATERSYS COOLTOWERNODE,TOWERWATERSYS SUPPLY EQUIPMENT OUTLET NODE,Chilled Water Nodes
 Component Set,62,BRANCH,TOWERWATERSYS SUPPLY EQUIPMENT BYPASS BRANCH,PIPE:ADIABATIC,TOWERWATERSYS SUPPLY EQUIPMENT BYPASS PIPE,TOWERWATERSYS SUPPLY EQUIP BYPASS INLET NODE,TOWERWATERSYS SUPPLY EQUIP BYPASS OUTLET NODE,Pipe Nodes
 Component Set,63,BRANCH,TOWERWATERSYS SUPPLY INLET BRANCH,PUMP:CONSTANTSPEED,TOWERWATERSYS PUMP,TOWERWATERSYS SUPPLY INLET NODE,TOWERWATERSYS PUMP-TOWERWATERSYS COOLTOWERNODEVIACONNECTOR,Water Nodes
 Component Set,64,BRANCH,TOWERWATERSYS SUPPLY OUTLET BRANCH,PIPE:ADIABATIC,TOWERWATERSYS SUPPLY OUTLET PIPE,TOWERWATERSYS SUPPLY MIXER-TOWERWATERSYS SUPPLY OUTLET PIPE,TOWERWATERSYS SUPPLY OUTLET NODE,Pipe Nodes
 Component Set,65,BRANCH,SWHSYS1 DEMAND BYPASS BRANCH,PIPE:ADIABATIC,SWHSYS1 DEMAND BYPASS PIPE,SWHSYS1 DEMAND BYPASS PIPE INLET NODE,SWHSYS1 DEMAND BYPASS PIPE OUTLET NODE,Pipe Nodes
 Component Set,66,BRANCH,SWHSYS1 DEMAND INLET BRANCH,PIPE:ADIABATIC,SWHSYS1 DEMAND INLET PIPE,SWHSYS1 DEMAND INLET NODE,SWHSYS1 DEMAND INLET PIPE-SWHSYS1 DEMAND MIXER,Pipe Nodes
 Component Set,67,BRANCH,SWHSYS1 DEMAND LOAD BRANCH 1,WATERUSE:CONNECTIONS,CORE_BOTTOM WATER EQUIPMENT,CORE_BOTTOM WATER EQUIPMENT WATER INLET NODE,CORE_BOTTOM WATER EQUIPMENT WATER OUTLET NODE,DHW Nodes
 Component Set,68,BRANCH,SWHSYS1 DEMAND LOAD BRANCH 2,WATERUSE:CONNECTIONS,CORE_MID WATER EQUIPMENT,CORE_MID WATER EQUIPMENT WATER INLET NODE,CORE_MID WATER EQUIPMENT WATER OUTLET NODE,DHW Nodes
 Component Set,69,BRANCH,SWHSYS1 DEMAND LOAD BRANCH 3,WATERUSE:CONNECTIONS,CORE_TOP WATER EQUIPMENT,CORE_TOP WATER EQUIPMENT WATER INLET NODE,CORE_TOP WATER EQUIPMENT WATER OUTLET NODE,DHW Nodes
 Component Set,70,BRANCH,SWHSYS1 DEMAND OUTLET BRANCH,PIPE:ADIABATIC,SWHSYS1 DEMAND OUTLET PIPE,SWHSYS1 DEMAND MIXER-SWHSYS1 DEMAND OUTLET PIPE,SWHSYS1 DEMAND OUTLET NODE,Pipe Nodes
 Component Set,71,BRANCH,SWHSYS1 SUPPLY EQUIPMENT BRANCH,WATERHEATER:MIXED,SWHSYS1 WATER HEATER,SWHSYS1 PUMP-SWHSYS1 WATER HEATERNODE,SWHSYS1 SUPPLY EQUIPMENT OUTLET NODE,Use Side Water Nodes
 Component Set,72,BRANCH,SWHSYS1 SUPPLY EQUIPMENT BYPASS BRANCH,PIPE:ADIABATIC,SWHSYS1 SUPPLY EQUIPMENT BYPASS PIPE,SWHSYS1 SUPPLY EQUIP BYPASS INLET NODE,SWHSYS1 SUPPLY EQUIP BYPASS OUTLET NODE,Pipe Nodes
 Component Set,73,BRANCH,SWHSYS1 SUPPLY INLET BRANCH,PUMP:VARIABLESPEED,SWHSYS1 PUMP,SWHSYS1 SUPPLY INLET NODE,SWHSYS1 PUMP-SWHSYS1 WATER HEATERNODEVIACONNECTOR,Water Nodes
 Component Set,74,BRANCH,SWHSYS1 SUPPLY OUTLET BRANCH,PIPE:ADIABATIC,SWHSYS1 SUPPLY OUTLET PIPE,SWHSYS1 SUPPLY MIXER-SWHSYS1 SUPPLY OUTLET PIPE,SWHSYS1 SUPPLY OUTLET NODE,Pipe Nodes
 Component Set,75,ZONEHVAC:AIRDISTRIBUTIONUNIT,BASEMENT VAV BOX,AIRTERMINAL:SINGLEDUCT:VAV:REHEAT,BASEMENT VAV BOX COMPONENT,BASEMENT VAV BOX INLET NODE NAME,BASEMENT VAV BOX OUTLET NODE NAME,Air Nodes
 Component Set,76,ZONEHVAC:AIRDISTRIBUTIONUNIT,CORE_BOTTOM VAV BOX,AIRTERMINAL:SINGLEDUCT:VAV:REHEAT,CORE_BOTTOM VAV BOX COMPONENT,CORE_BOTTOM VAV BOX INLET NODE NAME,CORE_BOTTOM VAV BOX OUTLET NODE NAME,Air Nodes
 Component Set,77,ZONEHVAC:AIRDISTRIBUTIONUNIT,CORE_MID VAV BOX,AIRTERMINAL:SINGLEDUCT:VAV:REHEAT,CORE_MID VAV BOX COMPONENT,CORE_MID VAV BOX INLET NODE NAME,CORE_MID VAV BOX OUTLET NODE NAME,Air Nodes
 Component Set,78,ZONEHVAC:AIRDISTRIBUTIONUNIT,CORE_TOP VAV BOX,AIRTERMINAL:SINGLEDUCT:VAV:REHEAT,CORE_TOP VAV BOX COMPONENT,CORE_TOP VAV BOX INLET NODE NAME,CORE_TOP VAV BOX OUTLET NODE NAME,Air Nodes
 Component Set,79,ZONEHVAC:AIRDISTRIBUTIONUNIT,PERIMETER_BOT_ZN_1 VAV BOX,AIRTERMINAL:SINGLEDUCT:VAV:REHEAT,PERIMETER_BOT_ZN_1 VAV BOX COMPONENT,PERIMETER_BOT_ZN_1 VAV BOX INLET NODE NAME,PERIMETER_BOT_ZN_1 VAV BOX OUTLET NODE NAME,Air Nodes
 Component Set,80,ZONEHVAC:AIRDISTRIBUTIONUNIT,PERIMETER_BOT_ZN_2 VAV BOX,AIRTERMINAL:SINGLEDUCT:VAV:REHEAT,PERIMETER_BOT_ZN_2 VAV BOX COMPONENT,PERIMETER_BOT_ZN_2 VAV BOX INLET NODE NAME,PERIMETER_BOT_ZN_2 VAV BOX OUTLET NODE NAME,Air Nodes
 Component Set,81,ZONEHVAC:AIRDISTRIBUTIONUNIT,PERIMETER_BOT_ZN_3 VAV BOX,AIRTERMINAL:SINGLEDUCT:VAV:REHEAT,PERIMETER_BOT_ZN_3 VAV BOX COMPONENT,PERIMETER_BOT_ZN_3 VAV BOX INLET NODE NAME,PERIMETER_BOT_ZN_3 VAV BOX OUTLET NODE NAME,Air Nodes
 Component Set,82,ZONEHVAC:AIRDISTRIBUTIONUNIT,PERIMETER_BOT_ZN_4 VAV BOX,AIRTERMINAL:SINGLEDUCT:VAV:REHEAT,PERIMETER_BOT_ZN_4 VAV BOX COMPONENT,PERIMETER_BOT_ZN_4 VAV BOX INLET NODE NAME,PERIMETER_BOT_ZN_4 VAV BOX OUTLET NODE NAME,Air Nodes
 Component Set,83,ZONEHVAC:AIRDISTRIBUTIONUNIT,PERIMETER_MID_ZN_1 VAV BOX,AIRTERMINAL:SINGLEDUCT:VAV:REHEAT,PERIMETER_MID_ZN_1 VAV BOX COMPONENT,PERIMETER_MID_ZN_1 VAV BOX INLET NODE NAME,PERIMETER_MID_ZN_1 VAV BOX OUTLET NODE NAME,Air Nodes
 Component Set,84,ZONEHVAC:AIRDISTRIBUTIONUNIT,PERIMETER_MID_ZN_2 VAV BOX,AIRTERMINAL:SINGLEDUCT:VAV:REHEAT,PERIMETER_MID_ZN_2 VAV BOX COMPONENT,PERIMETER_MID_ZN_2 VAV BOX INLET NODE NAME,PERIMETER_MID_ZN_2 VAV BOX OUTLET NODE NAME,Air Nodes
 Component Set,85,ZONEHVAC:AIRDISTRIBUTIONUNIT,PERIMETER_MID_ZN_3 VAV BOX,AIRTERMINAL:SINGLEDUCT:VAV:REHEAT,PERIMETER_MID_ZN_3 VAV BOX COMPONENT,PERIMETER_MID_ZN_3 VAV BOX INLET NODE NAME,PERIMETER_MID_ZN_3 VAV BOX OUTLET NODE NAME,Air Nodes
 Component Set,86,ZONEHVAC:AIRDISTRIBUTIONUNIT,PERIMETER_MID_ZN_4 VAV BOX,AIRTERMINAL:SINGLEDUCT:VAV:REHEAT,PERIMETER_MID_ZN_4 VAV BOX COMPONENT,PERIMETER_MID_ZN_4 VAV BOX INLET NODE NAME,PERIMETER_MID_ZN_4 VAV BOX OUTLET NODE NAME,Air Nodes
 Component Set,87,ZONEHVAC:AIRDISTRIBUTIONUNIT,PERIMETER_TOP_ZN_1 VAV BOX,AIRTERMINAL:SINGLEDUCT:VAV:REHEAT,PERIMETER_TOP_ZN_1 VAV BOX COMPONENT,PERIMETER_TOP_ZN_1 VAV BOX INLET NODE NAME,PERIMETER_TOP_ZN_1 VAV BOX OUTLET NODE NAME,Air Nodes
 Component Set,88,ZONEHVAC:AIRDISTRIBUTIONUNIT,PERIMETER_TOP_ZN_2 VAV BOX,AIRTERMINAL:SINGLEDUCT:VAV:REHEAT,PERIMETER_TOP_ZN_2 VAV BOX COMPONENT,PERIMETER_TOP_ZN_2 VAV BOX INLET NODE NAME,PERIMETER_TOP_ZN_2 VAV BOX OUTLET NODE NAME,Air Nodes
 Component Set,89,ZONEHVAC:AIRDISTRIBUTIONUNIT,PERIMETER_TOP_ZN_3 VAV BOX,AIRTERMINAL:SINGLEDUCT:VAV:REHEAT,PERIMETER_TOP_ZN_3 VAV BOX COMPONENT,PERIMETER_TOP_ZN_3 VAV BOX INLET NODE NAME,PERIMETER_TOP_ZN_3 VAV BOX OUTLET NODE NAME,Air Nodes
 Component Set,90,ZONEHVAC:AIRDISTRIBUTIONUNIT,PERIMETER_TOP_ZN_4 VAV BOX,AIRTERMINAL:SINGLEDUCT:VAV:REHEAT,PERIMETER_TOP_ZN_4 VAV BOX COMPONENT,PERIMETER_TOP_ZN_4 VAV BOX INLET NODE NAME,PERIMETER_TOP_ZN_4 VAV BOX OUTLET NODE NAME,Air Nodes
 Component Set,91,AIRTERMINAL:SINGLEDUCT:VAV:REHEAT,BASEMENT VAV BOX COMPONENT,COIL:HEATING:WATER,BASEMENT VAV BOX REHEAT COIL,BASEMENT VAV BOX DAMPER NODE,BASEMENT VAV BOX OUTLET NODE NAME,Air Nodes
 Component Set,92,AIRTERMINAL:SINGLEDUCT:VAV:REHEAT,CORE_BOTTOM VAV BOX COMPONENT,COIL:HEATING:WATER,CORE_BOTTOM VAV BOX REHEAT COIL,CORE_BOTTOM VAV BOX DAMPER NODE,CORE_BOTTOM VAV BOX OUTLET NODE NAME,Air Nodes
 Component Set,93,AIRTERMINAL:SINGLEDUCT:VAV:REHEAT,CORE_MID VAV BOX COMPONENT,COIL:HEATING:WATER,CORE_MID VAV BOX REHEAT COIL,CORE_MID VAV BOX DAMPER NODE,CORE_MID VAV BOX OUTLET NODE NAME,Air Nodes
 Component Set,94,AIRTERMINAL:SINGLEDUCT:VAV:REHEAT,CORE_TOP VAV BOX COMPONENT,COIL:HEATING:WATER,CORE_TOP VAV BOX REHEAT COIL,CORE_TOP VAV BOX DAMPER NODE,CORE_TOP VAV BOX OUTLET NODE NAME,Air Nodes
 Component Set,95,AIRTERMINAL:SINGLEDUCT:VAV:REHEAT,PERIMETER_BOT_ZN_1 VAV BOX COMPONENT,COIL:HEATING:WATER,PERIMETER_BOT_ZN_1 VAV BOX REHEAT COIL,PERIMETER_BOT_ZN_1 VAV BOX DAMPER NODE,PERIMETER_BOT_ZN_1 VAV BOX OUTLET NODE NAME,Air Nodes
 Component Set,96,AIRTERMINAL:SINGLEDUCT:VAV:REHEAT,PERIMETER_BOT_ZN_2 VAV BOX COMPONENT,COIL:HEATING:WATER,PERIMETER_BOT_ZN_2 VAV BOX REHEAT COIL,PERIMETER_BOT_ZN_2 VAV BOX DAMPER NODE,PERIMETER_BOT_ZN_2 VAV BOX OUTLET NODE NAME,Air Nodes
 Component Set,97,AIRTERMINAL:SINGLEDUCT:VAV:REHEAT,PERIMETER_BOT_ZN_3 VAV BOX COMPONENT,COIL:HEATING:WATER,PERIMETER_BOT_ZN_3 VAV BOX REHEAT COIL,PERIMETER_BOT_ZN_3 VAV BOX DAMPER NODE,PERIMETER_BOT_ZN_3 VAV BOX OUTLET NODE NAME,Air Nodes
 Component Set,98,AIRTERMINAL:SINGLEDUCT:VAV:REHEAT,PERIMETER_BOT_ZN_4 VAV BOX COMPONENT,COIL:HEATING:WATER,PERIMETER_BOT_ZN_4 VAV BOX REHEAT COIL,PERIMETER_BOT_ZN_4 VAV BOX DAMPER NODE,PERIMETER_BOT_ZN_4 VAV BOX OUTLET NODE NAME,Air Nodes
 Component Set,99,AIRTERMINAL:SINGLEDUCT:VAV:REHEAT,PERIMETER_MID_ZN_1 VAV BOX COMPONENT,COIL:HEATING:WATER,PERIMETER_MID_ZN_1 VAV BOX REHEAT COIL,PERIMETER_MID_ZN_1 VAV BOX DAMPER NODE,PERIMETER_MID_ZN_1 VAV BOX OUTLET NODE NAME,Air Nodes
 Component Set,100,AIRTERMINAL:SINGLEDUCT:VAV:REHEAT,PERIMETER_MID_ZN_2 VAV BOX COMPONENT,COIL:HEATING:WATER,PERIMETER_MID_ZN_2 VAV BOX REHEAT COIL,PERIMETER_MID_ZN_2 VAV BOX DAMPER NODE,PERIMETER_MID_ZN_2 VAV BOX OUTLET NODE NAME,Air Nodes
 Component Set,101,AIRTERMINAL:SINGLEDUCT:VAV:REHEAT,PERIMETER_MID_ZN_3 VAV BOX COMPONENT,COIL:HEATING:WATER,PERIMETER_MID_ZN_3 VAV BOX REHEAT COIL,PERIMETER_MID_ZN_3 VAV BOX DAMPER NODE,PERIMETER_MID_ZN_3 VAV BOX OUTLET NODE NAME,Air Nodes
 Component Set,102,AIRTERMINAL:SINGLEDUCT:VAV:REHEAT,PERIMETER_MID_ZN_4 VAV BOX COMPONENT,COIL:HEATING:WATER,PERIMETER_MID_ZN_4 VAV BOX REHEAT COIL,PERIMETER_MID_ZN_4 VAV BOX DAMPER NODE,PERIMETER_MID_ZN_4 VAV BOX OUTLET NODE NAME,Air Nodes
 Component Set,103,AIRTERMINAL:SINGLEDUCT:VAV:REHEAT,PERIMETER_TOP_ZN_1 VAV BOX COMPONENT,COIL:HEATING:WATER,PERIMETER_TOP_ZN_1 VAV BOX REHEAT COIL,PERIMETER_TOP_ZN_1 VAV BOX DAMPER NODE,PERIMETER_TOP_ZN_1 VAV BOX OUTLET NODE NAME,Air Nodes
 Component Set,104,AIRTERMINAL:SINGLEDUCT:VAV:REHEAT,PERIMETER_TOP_ZN_2 VAV BOX COMPONENT,COIL:HEATING:WATER,PERIMETER_TOP_ZN_2 VAV BOX REHEAT COIL,PERIMETER_TOP_ZN_2 VAV BOX DAMPER NODE,PERIMETER_TOP_ZN_2 VAV BOX OUTLET NODE NAME,Air Nodes
 Component Set,105,AIRTERMINAL:SINGLEDUCT:VAV:REHEAT,PERIMETER_TOP_ZN_3 VAV BOX COMPONENT,COIL:HEATING:WATER,PERIMETER_TOP_ZN_3 VAV BOX REHEAT COIL,PERIMETER_TOP_ZN_3 VAV BOX DAMPER NODE,PERIMETER_TOP_ZN_3 VAV BOX OUTLET NODE NAME,Air Nodes
 Component Set,106,AIRTERMINAL:SINGLEDUCT:VAV:REHEAT,PERIMETER_TOP_ZN_4 VAV BOX COMPONENT,COIL:HEATING:WATER,PERIMETER_TOP_ZN_4 VAV BOX REHEAT COIL,PERIMETER_TOP_ZN_4 VAV BOX DAMPER NODE,PERIMETER_TOP_ZN_4 VAV BOX OUTLET NODE NAME,Air Nodes
 Component Set,107,AIRLOOPHVAC:OUTDOORAIRSYSTEM,VAV_1_OA,OUTDOORAIR:MIXER,VAV_1_OAMIXING BOX,VAV_1_OAINLET NODE,VAV_1_OA-VAV_1_COOLCNODE,Air Nodes
 Component Set,108,AIRLOOPHVAC:OUTDOORAIRSYSTEM,VAV_2_OA,OUTDOORAIR:MIXER,VAV_2_OAMIXING BOX,VAV_2_OAINLET NODE,VAV_2_OA-VAV_2_COOLCNODE,Air Nodes
 Component Set,109,AIRLOOPHVAC:OUTDOORAIRSYSTEM,VAV_3_OA,OUTDOORAIR:MIXER,VAV_3_OAMIXING BOX,VAV_3_OAINLET NODE,VAV_3_OA-VAV_3_COOLCNODE,Air Nodes
 Component Set,110,AIRLOOPHVAC:OUTDOORAIRSYSTEM,VAV_5_OA,OUTDOORAIR:MIXER,VAV_5_OAMIXING BOX,VAV_5_OAINLET NODE,VAV_5_OA-VAV_5_COOLCNODE,Air Nodes
! ===============================================================
! <# Plant Loops>,<Number of Plant Loops>
 #Plant Loops,3
! <Plant Loop>,<Plant Loop Name>,<Loop Type>,<Inlet Node Name>,<Outlet Node Name>,<Branch List>,<Connector List>
! <Plant Loop Connector>,<Connector Type>,<Connector Name>,<Loop Name>,<Loop Type>,<Number of Inlets/Outlets>
! <Plant Loop Connector Branches>,<Connector Node Count>,<Connector Type>,<Connector Name>,<Inlet Branch>,<Outlet Branch>,<Loop Name>,<Loop Type>
! <Plant Loop Connector Nodes>,<Connector Node Count>,<Connector Type>,<Connector Name>,<Inlet Node>,<Outlet Node>,<Loop Name>,<Loop Type>
! <Plant Loop Supply Connection>,<Plant Loop Name>,<Supply Side Outlet Node Name>,<Demand Side Inlet Node Name>
! <Plant Loop Return Connection>,<Plant Loop Name>,<Demand Side Outlet Node Name>,<Supply Side Inlet Node Name>
 Plant Loop,COOLSYS1,Demand,COOLSYS1 DEMAND INLET NODE,COOLSYS1 DEMAND OUTLET NODE,COOLSYS1 DEMAND BRANCHES,COOLSYS1 DEMAND CONNECTORS
   Plant Loop Connector,Splitter,COOLSYS1 DEMAND SPLITTER,COOLSYS1,Demand,5
     Plant Loop Connector Branches,1,Splitter,COOLSYS1 DEMAND SPLITTER,COOLSYS1 DEMAND INLET BRANCH,COOLSYS1 DEMAND LOAD BRANCH 1,COOLSYS1,Demand
     Plant Loop Connector Nodes,   1,Splitter,COOLSYS1 DEMAND SPLITTER,COOLSYS1 DEMAND INLET PIPE-COOLSYS1 DEMAND MIXER,VAV_5_COOLCDEMAND INLET NODE,COOLSYS1,Demand
     Plant Loop Connector Branches,2,Splitter,COOLSYS1 DEMAND SPLITTER,COOLSYS1 DEMAND INLET BRANCH,COOLSYS1 DEMAND LOAD BRANCH 2,COOLSYS1,Demand
     Plant Loop Connector Nodes,   2,Splitter,COOLSYS1 DEMAND SPLITTER,COOLSYS1 DEMAND INLET PIPE-COOLSYS1 DEMAND MIXER,VAV_1_COOLCDEMAND INLET NODE,COOLSYS1,Demand
     Plant Loop Connector Branches,3,Splitter,COOLSYS1 DEMAND SPLITTER,COOLSYS1 DEMAND INLET BRANCH,COOLSYS1 DEMAND LOAD BRANCH 3,COOLSYS1,Demand
     Plant Loop Connector Nodes,   3,Splitter,COOLSYS1 DEMAND SPLITTER,COOLSYS1 DEMAND INLET PIPE-COOLSYS1 DEMAND MIXER,VAV_2_COOLCDEMAND INLET NODE,COOLSYS1,Demand
     Plant Loop Connector Branches,4,Splitter,COOLSYS1 DEMAND SPLITTER,COOLSYS1 DEMAND INLET BRANCH,COOLSYS1 DEMAND LOAD BRANCH 4,COOLSYS1,Demand
     Plant Loop Connector Nodes,   4,Splitter,COOLSYS1 DEMAND SPLITTER,COOLSYS1 DEMAND INLET PIPE-COOLSYS1 DEMAND MIXER,VAV_3_COOLCDEMAND INLET NODE,COOLSYS1,Demand
     Plant Loop Connector Branches,5,Splitter,COOLSYS1 DEMAND SPLITTER,COOLSYS1 DEMAND INLET BRANCH,COOLSYS1 DEMAND BYPASS BRANCH,COOLSYS1,Demand
     Plant Loop Connector Nodes,   5,Splitter,COOLSYS1 DEMAND SPLITTER,COOLSYS1 DEMAND INLET PIPE-COOLSYS1 DEMAND MIXER,COOLSYS1 DEMAND BYPASS PIPE INLET NODE,COOLSYS1,Demand
   Plant Loop Connector,Mixer,COOLSYS1 DEMAND MIXER,COOLSYS1,Demand,5
     Plant Loop Connector Branches,1,Mixer,COOLSYS1 DEMAND MIXER,COOLSYS1 DEMAND LOAD BRANCH 1,COOLSYS1 DEMAND OUTLET BRANCH,COOLSYS1,Demand
     Plant Loop Connector Nodes,   1,Mixer,COOLSYS1 DEMAND MIXER,VAV_5_COOLCDEMAND OUTLET NODE,COOLSYS1 DEMAND MIXER-COOLSYS1 DEMAND OUTLET PIPE,COOLSYS1,Demand
     Plant Loop Connector Branches,2,Mixer,COOLSYS1 DEMAND MIXER,COOLSYS1 DEMAND LOAD BRANCH 2,COOLSYS1 DEMAND OUTLET BRANCH,COOLSYS1,Demand
     Plant Loop Connector Nodes,   2,Mixer,COOLSYS1 DEMAND MIXER,VAV_1_COOLCDEMAND OUTLET NODE,COOLSYS1 DEMAND MIXER-COOLSYS1 DEMAND OUTLET PIPE,COOLSYS1,Demand
     Plant Loop Connector Branches,3,Mixer,COOLSYS1 DEMAND MIXER,COOLSYS1 DEMAND LOAD BRANCH 3,COOLSYS1 DEMAND OUTLET BRANCH,COOLSYS1,Demand
     Plant Loop Connector Nodes,   3,Mixer,COOLSYS1 DEMAND MIXER,VAV_2_COOLCDEMAND OUTLET NODE,COOLSYS1 DEMAND MIXER-COOLSYS1 DEMAND OUTLET PIPE,COOLSYS1,Demand
     Plant Loop Connector Branches,4,Mixer,COOLSYS1 DEMAND MIXER,COOLSYS1 DEMAND LOAD BRANCH 4,COOLSYS1 DEMAND OUTLET BRANCH,COOLSYS1,Demand
     Plant Loop Connector Nodes,   4,Mixer,COOLSYS1 DEMAND MIXER,VAV_3_COOLCDEMAND OUTLET NODE,COOLSYS1 DEMAND MIXER-COOLSYS1 DEMAND OUTLET PIPE,COOLSYS1,Demand
     Plant Loop Connector Branches,5,Mixer,COOLSYS1 DEMAND MIXER,COOLSYS1 DEMAND BYPASS BRANCH,COOLSYS1 DEMAND OUTLET BRANCH,COOLSYS1,Demand
     Plant Loop Connector Nodes,   5,Mixer,COOLSYS1 DEMAND MIXER,COOLSYS1 DEMAND BYPASS PIPE OUTLET NODE,COOLSYS1 DEMAND MIXER-COOLSYS1 DEMAND OUTLET PIPE,COOLSYS1,Demand
 Plant Loop,COOLSYS1,Supply,COOLSYS1 SUPPLY INLET NODE,COOLSYS1 SUPPLY OUTLET NODE,COOLSYS1 SUPPLY BRANCHES,COOLSYS1 SUPPLY CONNECTORS
   Plant Loop Connector,Splitter,COOLSYS1 SUPPLY SPLITTER,COOLSYS1,Supply,3
     Plant Loop Connector Branches,1,Splitter,COOLSYS1 SUPPLY SPLITTER,COOLSYS1 SUPPLY INLET BRANCH,COOLSYS1 SUPPLY EQUIPMENT BRANCH 1,COOLSYS1,Supply
     Plant Loop Connector Nodes,   1,Splitter,COOLSYS1 SUPPLY SPLITTER,COOLSYS1 PUMP-COOLSYS1 CHILLERNODEVIACONNECTOR,COOLSYS1 PUMP-COOLSYS1 CHILLERNODE 1,COOLSYS1,Supply
     Plant Loop Connector Branches,2,Splitter,COOLSYS1 SUPPLY SPLITTER,COOLSYS1 SUPPLY INLET BRANCH,COOLSYS1 SUPPLY EQUIPMENT BRANCH 2,COOLSYS1,Supply
     Plant Loop Connector Nodes,   2,Splitter,COOLSYS1 SUPPLY SPLITTER,COOLSYS1 PUMP-COOLSYS1 CHILLERNODEVIACONNECTOR,COOLSYS1 PUMP-COOLSYS1 CHILLERNODE 2,COOLSYS1,Supply
     Plant Loop Connector Branches,3,Splitter,COOLSYS1 SUPPLY SPLITTER,COOLSYS1 SUPPLY INLET BRANCH,COOLSYS1 SUPPLY EQUIPMENT BYPASS BRANCH,COOLSYS1,Supply
     Plant Loop Connector Nodes,   3,Splitter,COOLSYS1 SUPPLY SPLITTER,COOLSYS1 PUMP-COOLSYS1 CHILLERNODEVIACONNECTOR,COOLSYS1 SUPPLY EQUIP BYPASS INLET NODE,COOLSYS1,Supply
   Plant Loop Connector,Mixer,COOLSYS1 SUPPLY MIXER,COOLSYS1,Supply,3
     Plant Loop Connector Branches,1,Mixer,COOLSYS1 SUPPLY MIXER,COOLSYS1 SUPPLY EQUIPMENT BRANCH 1,COOLSYS1 SUPPLY OUTLET BRANCH,COOLSYS1,Supply
     Plant Loop Connector Nodes,   1,Mixer,COOLSYS1 SUPPLY MIXER,COOLSYS1 SUPPLY EQUIPMENT OUTLET NODE 1,COOLSYS1 SUPPLY MIXER-COOLSYS1 SUPPLY OUTLET PIPE,COOLSYS1,Supply
     Plant Loop Connector Branches,2,Mixer,COOLSYS1 SUPPLY MIXER,COOLSYS1 SUPPLY EQUIPMENT BRANCH 2,COOLSYS1 SUPPLY OUTLET BRANCH,COOLSYS1,Supply
     Plant Loop Connector Nodes,   2,Mixer,COOLSYS1 SUPPLY MIXER,COOLSYS1 SUPPLY EQUIPMENT OUTLET NODE 2,COOLSYS1 SUPPLY MIXER-COOLSYS1 SUPPLY OUTLET PIPE,COOLSYS1,Supply
     Plant Loop Connector Branches,3,Mixer,COOLSYS1 SUPPLY MIXER,COOLSYS1 SUPPLY EQUIPMENT BYPASS BRANCH,COOLSYS1 SUPPLY OUTLET BRANCH,COOLSYS1,Supply
     Plant Loop Connector Nodes,   3,Mixer,COOLSYS1 SUPPLY MIXER,COOLSYS1 SUPPLY EQUIP BYPASS OUTLET NODE,COOLSYS1 SUPPLY MIXER-COOLSYS1 SUPPLY OUTLET PIPE,COOLSYS1,Supply
 Plant Loop Supply Connection,COOLSYS1,COOLSYS1 SUPPLY OUTLET NODE,COOLSYS1 DEMAND INLET NODE
 Plant Loop Return Connection,COOLSYS1,COOLSYS1 DEMAND OUTLET NODE,COOLSYS1 SUPPLY INLET NODE
 Plant Loop,HEATSYS1,Demand,HEATSYS1 DEMAND INLET NODE,HEATSYS1 DEMAND OUTLET NODE,HEATSYS1 DEMAND BRANCHES,HEATSYS1 DEMAND CONNECTORS
   Plant Loop Connector,Splitter,HEATSYS1 DEMAND SPLITTER,HEATSYS1,Demand,21
     Plant Loop Connector Branches,1,Splitter,HEATSYS1 DEMAND SPLITTER,HEATSYS1 DEMAND INLET BRANCH,HEATSYS1 DEMAND LOAD BRANCH 1,HEATSYS1,Demand
     Plant Loop Connector Nodes,   1,Splitter,HEATSYS1 DEMAND SPLITTER,HEATSYS1 DEMAND INLET PIPE-HEATSYS1 DEMAND MIXER,BASEMENT VAV BOX REHEAT COILDEMAND INLET NODE,HEATSYS1,Demand
     Plant Loop Connector Branches,2,Splitter,HEATSYS1 DEMAND SPLITTER,HEATSYS1 DEMAND INLET BRANCH,HEATSYS1 DEMAND LOAD BRANCH 2,HEATSYS1,Demand
     Plant Loop Connector Nodes,   2,Splitter,HEATSYS1 DEMAND SPLITTER,HEATSYS1 DEMAND INLET PIPE-HEATSYS1 DEMAND MIXER,CORE_BOTTOM VAV BOX REHEAT COILDEMAND INLET NODE,HEATSYS1,Demand
     Plant Loop Connector Branches,3,Splitter,HEATSYS1 DEMAND SPLITTER,HEATSYS1 DEMAND INLET BRANCH,HEATSYS1 DEMAND LOAD BRANCH 3,HEATSYS1,Demand
     Plant Loop Connector Nodes,   3,Splitter,HEATSYS1 DEMAND SPLITTER,HEATSYS1 DEMAND INLET PIPE-HEATSYS1 DEMAND MIXER,CORE_MID VAV BOX REHEAT COILDEMAND INLET NODE,HEATSYS1,Demand
     Plant Loop Connector Branches,4,Splitter,HEATSYS1 DEMAND SPLITTER,HEATSYS1 DEMAND INLET BRANCH,HEATSYS1 DEMAND LOAD BRANCH 4,HEATSYS1,Demand
     Plant Loop Connector Nodes,   4,Splitter,HEATSYS1 DEMAND SPLITTER,HEATSYS1 DEMAND INLET PIPE-HEATSYS1 DEMAND MIXER,CORE_TOP VAV BOX REHEAT COILDEMAND INLET NODE,HEATSYS1,Demand
     Plant Loop Connector Branches,5,Splitter,HEATSYS1 DEMAND SPLITTER,HEATSYS1 DEMAND INLET BRANCH,HEATSYS1 DEMAND LOAD BRANCH 5,HEATSYS1,Demand
     Plant Loop Connector Nodes,   5,Splitter,HEATSYS1 DEMAND SPLITTER,HEATSYS1 DEMAND INLET PIPE-HEATSYS1 DEMAND MIXER,PERIMETER_BOT_ZN_3 VAV BOX REHEAT COILDEMAND INLET NODE,HEATSYS1,Demand
     Plant Loop Connector Branches,6,Splitter,HEATSYS1 DEMAND SPLITTER,HEATSYS1 DEMAND INLET BRANCH,HEATSYS1 DEMAND LOAD BRANCH 6,HEATSYS1,Demand
     Plant Loop Connector Nodes,   6,Splitter,HEATSYS1 DEMAND SPLITTER,HEATSYS1 DEMAND INLET PIPE-HEATSYS1 DEMAND MIXER,PERIMETER_BOT_ZN_2 VAV BOX REHEAT COILDEMAND INLET NODE,HEATSYS1,Demand
     Plant Loop Connector Branches,7,Splitter,HEATSYS1 DEMAND SPLITTER,HEATSYS1 DEMAND INLET BRANCH,HEATSYS1 DEMAND LOAD BRANCH 7,HEATSYS1,Demand
     Plant Loop Connector Nodes,   7,Splitter,HEATSYS1 DEMAND SPLITTER,HEATSYS1 DEMAND INLET PIPE-HEATSYS1 DEMAND MIXER,PERIMETER_BOT_ZN_1 VAV BOX REHEAT COILDEMAND INLET NODE,HEATSYS1,Demand
     Plant Loop Connector Branches,8,Splitter,HEATSYS1 DEMAND SPLITTER,HEATSYS1 DEMAND INLET BRANCH,HEATSYS1 DEMAND LOAD BRANCH 8,HEATSYS1,Demand
     Plant Loop Connector Nodes,   8,Splitter,HEATSYS1 DEMAND SPLITTER,HEATSYS1 DEMAND INLET PIPE-HEATSYS1 DEMAND MIXER,PERIMETER_BOT_ZN_4 VAV BOX REHEAT COILDEMAND INLET NODE,HEATSYS1,Demand
     Plant Loop Connector Branches,9,Splitter,HEATSYS1 DEMAND SPLITTER,HEATSYS1 DEMAND INLET BRANCH,HEATSYS1 DEMAND LOAD BRANCH 9,HEATSYS1,Demand
     Plant Loop Connector Nodes,   9,Splitter,HEATSYS1 DEMAND SPLITTER,HEATSYS1 DEMAND INLET PIPE-HEATSYS1 DEMAND MIXER,PERIMETER_MID_ZN_3 VAV BOX REHEAT COILDEMAND INLET NODE,HEATSYS1,Demand
     Plant Loop Connector Branches,10,Splitter,HEATSYS1 DEMAND SPLITTER,HEATSYS1 DEMAND INLET BRANCH,HEATSYS1 DEMAND LOAD BRANCH 10,HEATSYS1,Demand
     Plant Loop Connector Nodes,   10,Splitter,HEATSYS1 DEMAND SPLITTER,HEATSYS1 DEMAND INLET PIPE-HEATSYS1 DEMAND MIXER,PERIMETER_MID_ZN_2 VAV BOX REHEAT COILDEMAND INLET NODE,HEATSYS1,Demand
     Plant Loop Connector Branches,11,Splitter,HEATSYS1 DEMAND SPLITTER,HEATSYS1 DEMAND INLET BRANCH,HEATSYS1 DEMAND LOAD BRANCH 11,HEATSYS1,Demand
     Plant Loop Connector Nodes,   11,Splitter,HEATSYS1 DEMAND SPLITTER,HEATSYS1 DEMAND INLET PIPE-HEATSYS1 DEMAND MIXER,PERIMETER_MID_ZN_1 VAV BOX REHEAT COILDEMAND INLET NODE,HEATSYS1,Demand
     Plant Loop Connector Branches,12,Splitter,HEATSYS1 DEMAND SPLITTER,HEATSYS1 DEMAND INLET BRANCH,HEATSYS1 DEMAND LOAD BRANCH 12,HEATSYS1,Demand
     Plant Loop Connector Nodes,   12,Splitter,HEATSYS1 DEMAND SPLITTER,HEATSYS1 DEMAND INLET PIPE-HEATSYS1 DEMAND MIXER,PERIMETER_MID_ZN_4 VAV BOX REHEAT COILDEMAND INLET NODE,HEATSYS1,Demand
     Plant Loop Connector Branches,13,Splitter,HEATSYS1 DEMAND SPLITTER,HEATSYS1 DEMAND INLET BRANCH,HEATSYS1 DEMAND LOAD BRANCH 13,HEATSYS1,Demand
     Plant Loop Connector Nodes,   13,Splitter,HEATSYS1 DEMAND SPLITTER,HEATSYS1 DEMAND INLET PIPE-HEATSYS1 DEMAND MIXER,PERIMETER_TOP_ZN_3 VAV BOX REHEAT COILDEMAND INLET NODE,HEATSYS1,Demand
     Plant Loop Connector Branches,14,Splitter,HEATSYS1 DEMAND SPLITTER,HEATSYS1 DEMAND INLET BRANCH,HEATSYS1 DEMAND LOAD BRANCH 14,HEATSYS1,Demand
     Plant Loop Connector Nodes,   14,Splitter,HEATSYS1 DEMAND SPLITTER,HEATSYS1 DEMAND INLET PIPE-HEATSYS1 DEMAND MIXER,PERIMETER_TOP_ZN_2 VAV BOX REHEAT COILDEMAND INLET NODE,HEATSYS1,Demand
     Plant Loop Connector Branches,15,Splitter,HEATSYS1 DEMAND SPLITTER,HEATSYS1 DEMAND INLET BRANCH,HEATSYS1 DEMAND LOAD BRANCH 15,HEATSYS1,Demand
     Plant Loop Connector Nodes,   15,Splitter,HEATSYS1 DEMAND SPLITTER,HEATSYS1 DEMAND INLET PIPE-HEATSYS1 DEMAND MIXER,PERIMETER_TOP_ZN_1 VAV BOX REHEAT COILDEMAND INLET NODE,HEATSYS1,Demand
     Plant Loop Connector Branches,16,Splitter,HEATSYS1 DEMAND SPLITTER,HEATSYS1 DEMAND INLET BRANCH,HEATSYS1 DEMAND LOAD BRANCH 16,HEATSYS1,Demand
     Plant Loop Connector Nodes,   16,Splitter,HEATSYS1 DEMAND SPLITTER,HEATSYS1 DEMAND INLET PIPE-HEATSYS1 DEMAND MIXER,PERIMETER_TOP_ZN_4 VAV BOX REHEAT COILDEMAND INLET NODE,HEATSYS1,Demand
     Plant Loop Connector Branches,17,Splitter,HEATSYS1 DEMAND SPLITTER,HEATSYS1 DEMAND INLET BRANCH,HEATSYS1 DEMAND LOAD BRANCH 17,HEATSYS1,Demand
     Plant Loop Connector Nodes,   17,Splitter,HEATSYS1 DEMAND SPLITTER,HEATSYS1 DEMAND INLET PIPE-HEATSYS1 DEMAND MIXER,VAV_5_HEATCDEMAND INLET NODE,HEATSYS1,Demand
     Plant Loop Connector Branches,18,Splitter,HEATSYS1 DEMAND SPLITTER,HEATSYS1 DEMAND INLET BRANCH,HEATSYS1 DEMAND LOAD BRANCH 18,HEATSYS1,Demand
     Plant Loop Connector Nodes,   18,Splitter,HEATSYS1 DEMAND SPLITTER,HEATSYS1 DEMAND INLET PIPE-HEATSYS1 DEMAND MIXER,VAV_1_HEATCDEMAND INLET NODE,HEATSYS1,Demand
     Plant Loop Connector Branches,19,Splitter,HEATSYS1 DEMAND SPLITTER,HEATSYS1 DEMAND INLET BRANCH,HEATSYS1 DEMAND LOAD BRANCH 19,HEATSYS1,Demand
     Plant Loop Connector Nodes,   19,Splitter,HEATSYS1 DEMAND SPLITTER,HEATSYS1 DEMAND INLET PIPE-HEATSYS1 DEMAND MIXER,VAV_2_HEATCDEMAND INLET NODE,HEATSYS1,Demand
     Plant Loop Connector Branches,20,Splitter,HEATSYS1 DEMAND SPLITTER,HEATSYS1 DEMAND INLET BRANCH,HEATSYS1 DEMAND LOAD BRANCH 20,HEATSYS1,Demand
     Plant Loop Connector Nodes,   20,Splitter,HEATSYS1 DEMAND SPLITTER,HEATSYS1 DEMAND INLET PIPE-HEATSYS1 DEMAND MIXER,VAV_3_HEATCDEMAND INLET NODE,HEATSYS1,Demand
     Plant Loop Connector Branches,21,Splitter,HEATSYS1 DEMAND SPLITTER,HEATSYS1 DEMAND INLET BRANCH,HEATSYS1 DEMAND BYPASS BRANCH,HEATSYS1,Demand
     Plant Loop Connector Nodes,   21,Splitter,HEATSYS1 DEMAND SPLITTER,HEATSYS1 DEMAND INLET PIPE-HEATSYS1 DEMAND MIXER,HEATSYS1 DEMAND BYPASS PIPE INLET NODE,HEATSYS1,Demand
   Plant Loop Connector,Mixer,HEATSYS1 DEMAND MIXER,HEATSYS1,Demand,21
     Plant Loop Connector Branches,1,Mixer,HEATSYS1 DEMAND MIXER,HEATSYS1 DEMAND LOAD BRANCH 1,HEATSYS1 DEMAND OUTLET BRANCH,HEATSYS1,Demand
     Plant Loop Connector Nodes,   1,Mixer,HEATSYS1 DEMAND MIXER,BASEMENT VAV BOX REHEAT COILDEMAND OUTLET NODE,HEATSYS1 DEMAND MIXER-HEATSYS1 DEMAND OUTLET PIPE,HEATSYS1,Demand
     Plant Loop Connector Branches,2,Mixer,HEATSYS1 DEMAND MIXER,HEATSYS1 DEMAND LOAD BRANCH 2,HEATSYS1 DEMAND OUTLET BRANCH,HEATSYS1,Demand
     Plant Loop Connector Nodes,   2,Mixer,HEATSYS1 DEMAND MIXER,CORE_BOTTOM VAV BOX REHEAT COILDEMAND OUTLET NODE,HEATSYS1 DEMAND MIXER-HEATSYS1 DEMAND OUTLET PIPE,HEATSYS1,Demand
     Plant Loop Connector Branches,3,Mixer,HEATSYS1 DEMAND MIXER,HEATSYS1 DEMAND LOAD BRANCH 3,HEATSYS1 DEMAND OUTLET BRANCH,HEATSYS1,Demand
     Plant Loop Connector Nodes,   3,Mixer,HEATSYS1 DEMAND MIXER,CORE_MID VAV BOX REHEAT COILDEMAND OUTLET NODE,HEATSYS1 DEMAND MIXER-HEATSYS1 DEMAND OUTLET PIPE,HEATSYS1,Demand
     Plant Loop Connector Branches,4,Mixer,HEATSYS1 DEMAND MIXER,HEATSYS1 DEMAND LOAD BRANCH 4,HEATSYS1 DEMAND OUTLET BRANCH,HEATSYS1,Demand
     Plant Loop Connector Nodes,   4,Mixer,HEATSYS1 DEMAND MIXER,CORE_TOP VAV BOX REHEAT COILDEMAND OUTLET NODE,HEATSYS1 DEMAND MIXER-HEATSYS1 DEMAND OUTLET PIPE,HEATSYS1,Demand
     Plant Loop Connector Branches,5,Mixer,HEATSYS1 DEMAND MIXER,HEATSYS1 DEMAND LOAD BRANCH 5,HEATSYS1 DEMAND OUTLET BRANCH,HEATSYS1,Demand
     Plant Loop Connector Nodes,   5,Mixer,HEATSYS1 DEMAND MIXER,PERIMETER_BOT_ZN_3 VAV BOX REHEAT COILDEMAND OUTLET NODE,HEATSYS1 DEMAND MIXER-HEATSYS1 DEMAND OUTLET PIPE,HEATSYS1,Demand
     Plant Loop Connector Branches,6,Mixer,HEATSYS1 DEMAND MIXER,HEATSYS1 DEMAND LOAD BRANCH 6,HEATSYS1 DEMAND OUTLET BRANCH,HEATSYS1,Demand
     Plant Loop Connector Nodes,   6,Mixer,HEATSYS1 DEMAND MIXER,PERIMETER_BOT_ZN_2 VAV BOX REHEAT COILDEMAND OUTLET NODE,HEATSYS1 DEMAND MIXER-HEATSYS1 DEMAND OUTLET PIPE,HEATSYS1,Demand
     Plant Loop Connector Branches,7,Mixer,HEATSYS1 DEMAND MIXER,HEATSYS1 DEMAND LOAD BRANCH 7,HEATSYS1 DEMAND OUTLET BRANCH,HEATSYS1,Demand
     Plant Loop Connector Nodes,   7,Mixer,HEATSYS1 DEMAND MIXER,PERIMETER_BOT_ZN_1 VAV BOX REHEAT COILDEMAND OUTLET NODE,HEATSYS1 DEMAND MIXER-HEATSYS1 DEMAND OUTLET PIPE,HEATSYS1,Demand
     Plant Loop Connector Branches,8,Mixer,HEATSYS1 DEMAND MIXER,HEATSYS1 DEMAND LOAD BRANCH 8,HEATSYS1 DEMAND OUTLET BRANCH,HEATSYS1,Demand
     Plant Loop Connector Nodes,   8,Mixer,HEATSYS1 DEMAND MIXER,PERIMETER_BOT_ZN_4 VAV BOX REHEAT COILDEMAND OUTLET NODE,HEATSYS1 DEMAND MIXER-HEATSYS1 DEMAND OUTLET PIPE,HEATSYS1,Demand
     Plant Loop Connector Branches,9,Mixer,HEATSYS1 DEMAND MIXER,HEATSYS1 DEMAND LOAD BRANCH 9,HEATSYS1 DEMAND OUTLET BRANCH,HEATSYS1,Demand
     Plant Loop Connector Nodes,   9,Mixer,HEATSYS1 DEMAND MIXER,PERIMETER_MID_ZN_3 VAV BOX REHEAT COILDEMAND OUTLET NODE,HEATSYS1 DEMAND MIXER-HEATSYS1 DEMAND OUTLET PIPE,HEATSYS1,Demand
     Plant Loop Connector Branches,10,Mixer,HEATSYS1 DEMAND MIXER,HEATSYS1 DEMAND LOAD BRANCH 10,HEATSYS1 DEMAND OUTLET BRANCH,HEATSYS1,Demand
     Plant Loop Connector Nodes,   10,Mixer,HEATSYS1 DEMAND MIXER,PERIMETER_MID_ZN_2 VAV BOX REHEAT COILDEMAND OUTLET NODE,HEATSYS1 DEMAND MIXER-HEATSYS1 DEMAND OUTLET PIPE,HEATSYS1,Demand
     Plant Loop Connector Branches,11,Mixer,HEATSYS1 DEMAND MIXER,HEATSYS1 DEMAND LOAD BRANCH 11,HEATSYS1 DEMAND OUTLET BRANCH,HEATSYS1,Demand
     Plant Loop Connector Nodes,   11,Mixer,HEATSYS1 DEMAND MIXER,PERIMETER_MID_ZN_1 VAV BOX REHEAT COILDEMAND OUTLET NODE,HEATSYS1 DEMAND MIXER-HEATSYS1 DEMAND OUTLET PIPE,HEATSYS1,Demand
     Plant Loop Connector Branches,12,Mixer,HEATSYS1 DEMAND MIXER,HEATSYS1 DEMAND LOAD BRANCH 12,HEATSYS1 DEMAND OUTLET BRANCH,HEATSYS1,Demand
     Plant Loop Connector Nodes,   12,Mixer,HEATSYS1 DEMAND MIXER,PERIMETER_MID_ZN_4 VAV BOX REHEAT COILDEMAND OUTLET NODE,HEATSYS1 DEMAND MIXER-HEATSYS1 DEMAND OUTLET PIPE,HEATSYS1,Demand
     Plant Loop Connector Branches,13,Mixer,HEATSYS1 DEMAND MIXER,HEATSYS1 DEMAND LOAD BRANCH 13,HEATSYS1 DEMAND OUTLET BRANCH,HEATSYS1,Demand
     Plant Loop Connector Nodes,   13,Mixer,HEATSYS1 DEMAND MIXER,PERIMETER_TOP_ZN_3 VAV BOX REHEAT COILDEMAND OUTLET NODE,HEATSYS1 DEMAND MIXER-HEATSYS1 DEMAND OUTLET PIPE,HEATSYS1,Demand
     Plant Loop Connector Branches,14,Mixer,HEATSYS1 DEMAND MIXER,HEATSYS1 DEMAND LOAD BRANCH 14,HEATSYS1 DEMAND OUTLET BRANCH,HEATSYS1,Demand
     Plant Loop Connector Nodes,   14,Mixer,HEATSYS1 DEMAND MIXER,PERIMETER_TOP_ZN_2 VAV BOX REHEAT COILDEMAND OUTLET NODE,HEATSYS1 DEMAND MIXER-HEATSYS1 DEMAND OUTLET PIPE,HEATSYS1,Demand
     Plant Loop Connector Branches,15,Mixer,HEATSYS1 DEMAND MIXER,HEATSYS1 DEMAND LOAD BRANCH 15,HEATSYS1 DEMAND OUTLET BRANCH,HEATSYS1,Demand
     Plant Loop Connector Nodes,   15,Mixer,HEATSYS1 DEMAND MIXER,PERIMETER_TOP_ZN_1 VAV BOX REHEAT COILDEMAND OUTLET NODE,HEATSYS1 DEMAND MIXER-HEATSYS1 DEMAND OUTLET PIPE,HEATSYS1,Demand
     Plant Loop Connector Branches,16,Mixer,HEATSYS1 DEMAND MIXER,HEATSYS1 DEMAND LOAD BRANCH 16,HEATSYS1 DEMAND OUTLET BRANCH,HEATSYS1,Demand
     Plant Loop Connector Nodes,   16,Mixer,HEATSYS1 DEMAND MIXER,PERIMETER_TOP_ZN_4 VAV BOX REHEAT COILDEMAND OUTLET NODE,HEATSYS1 DEMAND MIXER-HEATSYS1 DEMAND OUTLET PIPE,HEATSYS1,Demand
     Plant Loop Connector Branches,17,Mixer,HEATSYS1 DEMAND MIXER,HEATSYS1 DEMAND LOAD BRANCH 17,HEATSYS1 DEMAND OUTLET BRANCH,HEATSYS1,Demand
     Plant Loop Connector Nodes,   17,Mixer,HEATSYS1 DEMAND MIXER,VAV_5_HEATCDEMAND OUTLET NODE,HEATSYS1 DEMAND MIXER-HEATSYS1 DEMAND OUTLET PIPE,HEATSYS1,Demand
     Plant Loop Connector Branches,18,Mixer,HEATSYS1 DEMAND MIXER,HEATSYS1 DEMAND LOAD BRANCH 18,HEATSYS1 DEMAND OUTLET BRANCH,HEATSYS1,Demand
     Plant Loop Connector Nodes,   18,Mixer,HEATSYS1 DEMAND MIXER,VAV_1_HEATCDEMAND OUTLET NODE,HEATSYS1 DEMAND MIXER-HEATSYS1 DEMAND OUTLET PIPE,HEATSYS1,Demand
     Plant Loop Connector Branches,19,Mixer,HEATSYS1 DEMAND MIXER,HEATSYS1 DEMAND LOAD BRANCH 19,HEATSYS1 DEMAND OUTLET BRANCH,HEATSYS1,Demand
     Plant Loop Connector Nodes,   19,Mixer,HEATSYS1 DEMAND MIXER,VAV_2_HEATCDEMAND OUTLET NODE,HEATSYS1 DEMAND MIXER-HEATSYS1 DEMAND OUTLET PIPE,HEATSYS1,Demand
     Plant Loop Connector Branches,20,Mixer,HEATSYS1 DEMAND MIXER,HEATSYS1 DEMAND LOAD BRANCH 20,HEATSYS1 DEMAND OUTLET BRANCH,HEATSYS1,Demand
     Plant Loop Connector Nodes,   20,Mixer,HEATSYS1 DEMAND MIXER,VAV_3_HEATCDEMAND OUTLET NODE,HEATSYS1 DEMAND MIXER-HEATSYS1 DEMAND OUTLET PIPE,HEATSYS1,Demand
     Plant Loop Connector Branches,21,Mixer,HEATSYS1 DEMAND MIXER,HEATSYS1 DEMAND BYPASS BRANCH,HEATSYS1 DEMAND OUTLET BRANCH,HEATSYS1,Demand
     Plant Loop Connector Nodes,   21,Mixer,HEATSYS1 DEMAND MIXER,HEATSYS1 DEMAND BYPASS PIPE OUTLET NODE,HEATSYS1 DEMAND MIXER-HEATSYS1 DEMAND OUTLET PIPE,HEATSYS1,Demand
[...]
 Non-Parent Node Connection,PERIMETER_TOP_ZN_3 VAV BOX DAMPER NODE,COIL:HEATING:WATER,PERIMETER_TOP_ZN_3 VAV BOX REHEAT COIL,Inlet,1
 Non-Parent Node Connection,PERIMETER_TOP_ZN_3 VAV BOX OUTLET NODE NAME,COIL:HEATING:WATER,PERIMETER_TOP_ZN_3 VAV BOX REHEAT COIL,Outlet,1
 Non-Parent Node Connection,PERIMETER_TOP_ZN_4 VAV BOX REHEAT COILDEMAND INLET NODE,COIL:HEATING:WATER,PERIMETER_TOP_ZN_4 VAV BOX REHEAT COIL,Inlet,2
 Non-Parent Node Connection,PERIMETER_TOP_ZN_4 VAV BOX REHEAT COILDEMAND OUTLET NODE,COIL:HEATING:WATER,PERIMETER_TOP_ZN_4 VAV BOX REHEAT COIL,Outlet,2
 Non-Parent Node Connection,PERIMETER_TOP_ZN_4 VAV BOX DAMPER NODE,COIL:HEATING:WATER,PERIMETER_TOP_ZN_4 VAV BOX REHEAT COIL,Inlet,1
 Non-Parent Node Connection,PERIMETER_TOP_ZN_4 VAV BOX OUTLET NODE NAME,COIL:HEATING:WATER,PERIMETER_TOP_ZN_4 VAV BOX REHEAT COIL,Outlet,1
 Non-Parent Node Connection,VAV_1_HEATCDEMAND INLET NODE,COIL:HEATING:WATER,VAV_1_HEATC,Inlet,2
 Non-Parent Node Connection,VAV_1_HEATCDEMAND OUTLET NODE,COIL:HEATING:WATER,VAV_1_HEATC,Outlet,2
 Non-Parent Node Connection,VAV_1_COOLC-VAV_1_HEATCNODE,COIL:HEATING:WATER,VAV_1_HEATC,Inlet,1
 Non-Parent Node Connection,VAV_1_HEATC-VAV_1_FANNODE,COIL:HEATING:WATER,VAV_1_HEATC,Outlet,1
 Non-Parent Node Connection,VAV_2_HEATCDEMAND INLET NODE,COIL:HEATING:WATER,VAV_2_HEATC,Inlet,2
 Non-Parent Node Connection,VAV_2_HEATCDEMAND OUTLET NODE,COIL:HEATING:WATER,VAV_2_HEATC,Outlet,2
 Non-Parent Node Connection,VAV_2_COOLC-VAV_2_HEATCNODE,COIL:HEATING:WATER,VAV_2_HEATC,Inlet,1
 Non-Parent Node Connection,VAV_2_HEATC-VAV_2_FANNODE,COIL:HEATING:WATER,VAV_2_HEATC,Outlet,1
 Non-Parent Node Connection,VAV_3_HEATCDEMAND INLET NODE,COIL:HEATING:WATER,VAV_3_HEATC,Inlet,2
 Non-Parent Node Connection,VAV_3_HEATCDEMAND OUTLET NODE,COIL:HEATING:WATER,VAV_3_HEATC,Outlet,2
 Non-Parent Node Connection,VAV_3_COOLC-VAV_3_HEATCNODE,COIL:HEATING:WATER,VAV_3_HEATC,Inlet,1
 Non-Parent Node Connection,VAV_3_HEATC-VAV_3_FANNODE,COIL:HEATING:WATER,VAV_3_HEATC,Outlet,1
 Non-Parent Node Connection,VAV_5_HEATCDEMAND INLET NODE,COIL:HEATING:WATER,VAV_5_HEATC,Inlet,2
 Non-Parent Node Connection,VAV_5_HEATCDEMAND OUTLET NODE,COIL:HEATING:WATER,VAV_5_HEATC,Outlet,2
 Non-Parent Node Connection,VAV_5_COOLC-VAV_5_HEATCNODE,COIL:HEATING:WATER,VAV_5_HEATC,Inlet,1
 Non-Parent Node Connection,VAV_5_HEATC-VAV_5_FANNODE,COIL:HEATING:WATER,VAV_5_HEATC,Outlet,1
 Non-Parent Node Connection,VAV_3_COOLCDEMAND INLET NODE,COIL:COOLING:WATER,VAV_3_COOLC,Inlet,2
 Non-Parent Node Connection,VAV_3_COOLCDEMAND OUTLET NODE,COIL:COOLING:WATER,VAV_3_COOLC,Outlet,2
 Non-Parent Node Connection,VAV_3_OA-VAV_3_COOLCNODE,COIL:COOLING:WATER,VAV_3_COOLC,Inlet,1
 Non-Parent Node Connection,VAV_3_COOLC-VAV_3_HEATCNODE,COIL:COOLING:WATER,VAV_3_COOLC,Outlet,1
 Non-Parent Node Connection,VAV_2_COOLCDEMAND INLET NODE,COIL:COOLING:WATER,VAV_2_COOLC,Inlet,2
 Non-Parent Node Connection,VAV_2_COOLCDEMAND OUTLET NODE,COIL:COOLING:WATER,VAV_2_COOLC,Outlet,2
 Non-Parent Node Connection,VAV_2_OA-VAV_2_COOLCNODE,COIL:COOLING:WATER,VAV_2_COOLC,Inlet,1
 Non-Parent Node Connection,VAV_2_COOLC-VAV_2_HEATCNODE,COIL:COOLING:WATER,VAV_2_COOLC,Outlet,1
 Non-Parent Node Connection,VAV_1_COOLCDEMAND INLET NODE,COIL:COOLING:WATER,VAV_1_COOLC,Inlet,2
 Non-Parent Node Connection,VAV_1_COOLCDEMAND OUTLET NODE,COIL:COOLING:WATER,VAV_1_COOLC,Outlet,2
 Non-Parent Node Connection,VAV_1_OA-VAV_1_COOLCNODE,COIL:COOLING:WATER,VAV_1_COOLC,Inlet,1
 Non-Parent Node Connection,VAV_1_COOLC-VAV_1_HEATCNODE,COIL:COOLING:WATER,VAV_1_COOLC,Outlet,1
 Non-Parent Node Connection,VAV_5_COOLCDEMAND INLET NODE,COIL:COOLING:WATER,VAV_5_COOLC,Inlet,2
 Non-Parent Node Connection,VAV_5_COOLCDEMAND OUTLET NODE,COIL:COOLING:WATER,VAV_5_COOLC,Outlet,2
 Non-Parent Node Connection,VAV_5_OA-VAV_5_COOLCNODE,COIL:COOLING:WATER,VAV_5_COOLC,Inlet,1
 Non-Parent Node Connection,VAV_5_COOLC-VAV_5_HEATCNODE,COIL:COOLING:WATER,VAV_5_COOLC,Outlet,1
 Non-Parent Node Connection,CORE_BOTTOM VAV BOX DAMPER NODE,AIRTERMINAL:SINGLEDUCT:VAV:REHEAT,CORE_BOTTOM VAV BOX COMPONENT,Outlet,1
 Non-Parent Node Connection,CORE_BOTTOM VAV BOX INLET NODE NAME,AIRTERMINAL:SINGLEDUCT:VAV:REHEAT,CORE_BOTTOM VAV BOX COMPONENT,Inlet,1
 Non-Parent Node Connection,CORE_MID VAV BOX DAMPER NODE,AIRTERMINAL:SINGLEDUCT:VAV:REHEAT,CORE_MID VAV BOX COMPONENT,Outlet,1
 Non-Parent Node Connection,CORE_MID VAV BOX INLET NODE NAME,AIRTERMINAL:SINGLEDUCT:VAV:REHEAT,CORE_MID VAV BOX COMPONENT,Inlet,1
 Non-Parent Node Connection,CORE_TOP VAV BOX DAMPER NODE,AIRTERMINAL:SINGLEDUCT:VAV:REHEAT,CORE_TOP VAV BOX COMPONENT,Outlet,1
 Non-Parent Node Connection,CORE_TOP VAV BOX INLET NODE NAME,AIRTERMINAL:SINGLEDUCT:VAV:REHEAT,CORE_TOP VAV BOX COMPONENT,Inlet,1
 Non-Parent Node Connection,PERIMETER_BOT_ZN_1 VAV BOX DAMPER NODE,AIRTERMINAL:SINGLEDUCT:VAV:REHEAT,PERIMETER_BOT_ZN_1 VAV BOX COMPONENT,Outlet,1
 Non-Parent Node Connection,PERIMETER_BOT_ZN_1 VAV BOX INLET NODE NAME,AIRTERMINAL:SINGLEDUCT:VAV:REHEAT,PERIMETER_BOT_ZN_1 VAV BOX COMPONENT,Inlet,1
 Non-Parent Node Connection,PERIMETER_BOT_ZN_2 VAV BOX DAMPER NODE,AIRTERMINAL:SINGLEDUCT:VAV:REHEAT,PERIMETER_BOT_ZN_2 VAV BOX COMPONENT,Outlet,1
 Non-Parent Node Connection,PERIMETER_BOT_ZN_2 VAV BOX INLET NODE NAME,AIRTERMINAL:SINGLEDUCT:VAV:REHEAT,PERIMETER_BOT_ZN_2 VAV BOX COMPONENT,Inlet,1
 Non-Parent Node Connection,PERIMETER_BOT_ZN_3 VAV BOX DAMPER NODE,AIRTERMINAL:SINGLEDUCT:VAV:REHEAT,PERIMETER_BOT_ZN_3 VAV BOX COMPONENT,Outlet,1
 Non-Parent Node Connection,PERIMETER_BOT_ZN_3 VAV BOX INLET NODE NAME,AIRTERMINAL:SINGLEDUCT:VAV:REHEAT,PERIMETER_BOT_ZN_3 VAV BOX COMPONENT,Inlet,1
 Non-Parent Node Connection,PERIMETER_BOT_ZN_4 VAV BOX DAMPER NODE,AIRTERMINAL:SINGLEDUCT:VAV:REHEAT,PERIMETER_BOT_ZN_4 VAV BOX COMPONENT,Outlet,1
 Non-Parent Node Connection,PERIMETER_BOT_ZN_4 VAV BOX INLET NODE NAME,AIRTERMINAL:SINGLEDUCT:VAV:REHEAT,PERIMETER_BOT_ZN_4 VAV BOX COMPONENT,Inlet,1
 Non-Parent Node Connection,PERIMETER_MID_ZN_1 VAV BOX DAMPER NODE,AIRTERMINAL:SINGLEDUCT:VAV:REHEAT,PERIMETER_MID_ZN_1 VAV BOX COMPONENT,Outlet,1
 Non-Parent Node Connection,PERIMETER_MID_ZN_1 VAV BOX INLET NODE NAME,AIRTERMINAL:SINGLEDUCT:VAV:REHEAT,PERIMETER_MID_ZN_1 VAV BOX COMPONENT,Inlet,1
 Non-Parent Node Connection,PERIMETER_MID_ZN_2 VAV BOX DAMPER NODE,AIRTERMINAL:SINGLEDUCT:VAV:REHEAT,PERIMETER_MID_ZN_2 VAV BOX COMPONENT,Outlet,1
 Non-Parent Node Connection,PERIMETER_MID_ZN_2 VAV BOX INLET NODE NAME,AIRTERMINAL:SINGLEDUCT:VAV:REHEAT,PERIMETER_MID_ZN_2 VAV BOX COMPONENT,Inlet,1
 Non-Parent Node Connection,PERIMETER_MID_ZN_3 VAV BOX DAMPER NODE,AIRTERMINAL:SINGLEDUCT:VAV:REHEAT,PERIMETER_MID_ZN_3 VAV BOX COMPONENT,Outlet,1
 Non-Parent Node Connection,PERIMETER_MID_ZN_3 VAV BOX INLET NODE NAME,AIRTERMINAL:SINGLEDUCT:VAV:REHEAT,PERIMETER_MID_ZN_3 VAV BOX COMPONENT,Inlet,1
 Non-Parent Node Connection,PERIMETER_MID_ZN_4 VAV BOX DAMPER NODE,AIRTERMINAL:SINGLEDUCT:VAV:REHEAT,PERIMETER_MID_ZN_4 VAV BOX COMPONENT,Outlet,1
 Non-Parent Node Connection,PERIMETER_MID_ZN_4 VAV BOX INLET NODE NAME,AIRTERMINAL:SINGLEDUCT:VAV:REHEAT,PERIMETER_MID_ZN_4 VAV BOX COMPONENT,Inlet,1
 Non-Parent Node Connection,PERIMETER_TOP_ZN_1 VAV BOX DAMPER NODE,AIRTERMINAL:SINGLEDUCT:VAV:REHEAT,PERIMETER_TOP_ZN_1 VAV BOX COMPONENT,Outlet,1
 Non-Parent Node Connection,PERIMETER_TOP_ZN_1 VAV BOX INLET NODE NAME,AIRTERMINAL:SINGLEDUCT:VAV:REHEAT,PERIMETER_TOP_ZN_1 VAV BOX COMPONENT,Inlet,1
 Non-Parent Node Connection,PERIMETER_TOP_ZN_2 VAV BOX DAMPER NODE,AIRTERMINAL:SINGLEDUCT:VAV:REHEAT,PERIMETER_TOP_ZN_2 VAV BOX COMPONENT,Outlet,1
 Non-Parent Node Connection,PERIMETER_TOP_ZN_2 VAV BOX INLET NODE NAME,AIRTERMINAL:SINGLEDUCT:VAV:REHEAT,PERIMETER_TOP_ZN_2 VAV BOX COMPONENT,Inlet,1
 Non-Parent Node Connection,PERIMETER_TOP_ZN_3 VAV BOX DAMPER NODE,AIRTERMINAL:SINGLEDUCT:VAV:REHEAT,PERIMETER_TOP_ZN_3 VAV BOX COMPONENT,Outlet,1
 Non-Parent Node Connection,PERIMETER_TOP_ZN_3 VAV BOX INLET NODE NAME,AIRTERMINAL:SINGLEDUCT:VAV:REHEAT,PERIMETER_TOP_ZN_3 VAV BOX COMPONENT,Inlet,1
 Non-Parent Node Connection,PERIMETER_TOP_ZN_4 VAV BOX DAMPER NODE,AIRTERMINAL:SINGLEDUCT:VAV:REHEAT,PERIMETER_TOP_ZN_4 VAV BOX COMPONENT,Outlet,1
 Non-Parent Node Connection,PERIMETER_TOP_ZN_4 VAV BOX INLET NODE NAME,AIRTERMINAL:SINGLEDUCT:VAV:REHEAT,PERIMETER_TOP_ZN_4 VAV BOX COMPONENT,Inlet,1
 Non-Parent Node Connection,MIDFLOOR_PLENUMPLENUMNODE,AIRLOOPHVAC:RETURNPLENUM,VAV_2 RETURN PLENUM,ZoneNode,1
 Non-Parent Node Connection,MIDFLOOR_PLENUMPLENUMOUTLETNODE,AIRLOOPHVAC:RETURNPLENUM,VAV_2 RETURN PLENUM,Outlet,1
 Non-Parent Node Connection,CORE_MID RETURN AIR NODE NAME,AIRLOOPHVAC:RETURNPLENUM,VAV_2 RETURN PLENUM,Inlet,1
 Non-Parent Node Connection,PERIMETER_MID_ZN_3 RETURN AIR NODE NAME,AIRLOOPHVAC:RETURNPLENUM,VAV_2 RETURN PLENUM,Inlet,1
 Non-Parent Node Connection,PERIMETER_MID_ZN_2 RETURN AIR NODE NAME,AIRLOOPHVAC:RETURNPLENUM,VAV_2 RETURN PLENUM,Inlet,1
 Non-Parent Node Connection,PERIMETER_MID_ZN_1 RETURN AIR NODE NAME,AIRLOOPHVAC:RETURNPLENUM,VAV_2 RETURN PLENUM,Inlet,1
 Non-Parent Node Connection,PERIMETER_MID_ZN_4 RETURN AIR NODE NAME,AIRLOOPHVAC:RETURNPLENUM,VAV_2 RETURN PLENUM,Inlet,1
 Non-Parent Node Connection,GROUNDFLOOR_PLENUMPLENUMNODE,AIRLOOPHVAC:RETURNPLENUM,VAV_1 RETURN PLENUM,ZoneNode,1
 Non-Parent Node Connection,GROUNDFLOOR_PLENUMPLENUMOUTLETNODE,AIRLOOPHVAC:RETURNPLENUM,VAV_1 RETURN PLENUM,Outlet,1
 Non-Parent Node Connection,CORE_BOTTOM RETURN AIR NODE NAME,AIRLOOPHVAC:RETURNPLENUM,VAV_1 RETURN PLENUM,Inlet,1
 Non-Parent Node Connection,PERIMETER_BOT_ZN_3 RETURN AIR NODE NAME,AIRLOOPHVAC:RETURNPLENUM,VAV_1 RETURN PLENUM,Inlet,1
 Non-Parent Node Connection,PERIMETER_BOT_ZN_2 RETURN AIR NODE NAME,AIRLOOPHVAC:RETURNPLENUM,VAV_1 RETURN PLENUM,Inlet,1
 Non-Parent Node Connection,PERIMETER_BOT_ZN_1 RETURN AIR NODE NAME,AIRLOOPHVAC:RETURNPLENUM,VAV_1 RETURN PLENUM,Inlet,1
 Non-Parent Node Connection,PERIMETER_BOT_ZN_4 RETURN AIR NODE NAME,AIRLOOPHVAC:RETURNPLENUM,VAV_1 RETURN PLENUM,Inlet,1
 Non-Parent Node Connection,TOPFLOOR_PLENUMPLENUMNODE,AIRLOOPHVAC:RETURNPLENUM,VAV_3 RETURN PLENUM,ZoneNode,1
 Non-Parent Node Connection,TOPFLOOR_PLENUMPLENUMOUTLETNODE,AIRLOOPHVAC:RETURNPLENUM,VAV_3 RETURN PLENUM,Outlet,1
 Non-Parent Node Connection,CORE_TOP RETURN AIR NODE NAME,AIRLOOPHVAC:RETURNPLENUM,VAV_3 RETURN PLENUM,Inlet,1
 Non-Parent Node Connection,PERIMETER_TOP_ZN_3 RETURN AIR NODE NAME,AIRLOOPHVAC:RETURNPLENUM,VAV_3 RETURN PLENUM,Inlet,1
 Non-Parent Node Connection,PERIMETER_TOP_ZN_2 RETURN AIR NODE NAME,AIRLOOPHVAC:RETURNPLENUM,VAV_3 RETURN PLENUM,Inlet,1
 Non-Parent Node Connection,PERIMETER_TOP_ZN_1 RETURN AIR NODE NAME,AIRLOOPHVAC:RETURNPLENUM,VAV_3 RETURN PLENUM,Inlet,1
 Non-Parent Node Connection,PERIMETER_TOP_ZN_4 RETURN AIR NODE NAME,AIRLOOPHVAC:RETURNPLENUM,VAV_3 RETURN PLENUM,Inlet,1
 Non-Parent Node Connection,VAV_1 ZONE EQUIPMENT OUTLET NODE,AIRLOOPHVAC:ZONEMIXER,VAV_1 RETURN AIR MIXER,Outlet,1
 Non-Parent Node Connection,GROUNDFLOOR_PLENUMPLENUMOUTLETNODE,AIRLOOPHVAC:ZONEMIXER,VAV_1 RETURN AIR MIXER,Inlet,1
 Non-Parent Node Connection,VAV_2 ZONE EQUIPMENT OUTLET NODE,AIRLOOPHVAC:ZONEMIXER,VAV_2 RETURN AIR MIXER,Outlet,1
 Non-Parent Node Connection,MIDFLOOR_PLENUMPLENUMOUTLETNODE,AIRLOOPHVAC:ZONEMIXER,VAV_2 RETURN AIR MIXER,Inlet,1
 Non-Parent Node Connection,VAV_3 ZONE EQUIPMENT OUTLET NODE,AIRLOOPHVAC:ZONEMIXER,VAV_3 RETURN AIR MIXER,Outlet,1
 Non-Parent Node Connection,TOPFLOOR_PLENUMPLENUMOUTLETNODE,AIRLOOPHVAC:ZONEMIXER,VAV_3 RETURN AIR MIXER,Inlet,1
 Non-Parent Node Connection,VAV_5 ZONE EQUIPMENT OUTLET NODE,AIRLOOPHVAC:ZONEMIXER,VAV_5 RETURN AIR MIXER,Outlet,1
 Non-Parent Node Connection,BASEMENT RETURN AIR NODE NAME,AIRLOOPHVAC:ZONEMIXER,VAV_5 RETURN AIR MIXER,Inlet,1
 Non-Parent Node Connection,VAV_1_OA-VAV_1_COOLCNODE,OUTDOORAIR:MIXER,VAV_1_OAMIXING BOX,Outlet,1
 Non-Parent Node Connection,VAV_1_OAINLET NODE,OUTDOORAIR:MIXER,VAV_1_OAMIXING BOX,Inlet,1
 Non-Parent Node Connection,VAV_1_OARELIEF NODE,OUTDOORAIR:MIXER,VAV_1_OAMIXING BOX,ReliefAir,1
 Non-Parent Node Connection,VAV_1 SUPPLY EQUIPMENT INLET NODE,OUTDOORAIR:MIXER,VAV_1_OAMIXING BOX,Inlet,1
 Non-Parent Node Connection,VAV_2_OA-VAV_2_COOLCNODE,OUTDOORAIR:MIXER,VAV_2_OAMIXING BOX,Outlet,1
 Non-Parent Node Connection,VAV_2_OAINLET NODE,OUTDOORAIR:MIXER,VAV_2_OAMIXING BOX,Inlet,1
 Non-Parent Node Connection,VAV_2_OARELIEF NODE,OUTDOORAIR:MIXER,VAV_2_OAMIXING BOX,ReliefAir,1
 Non-Parent Node Connection,VAV_2 SUPPLY EQUIPMENT INLET NODE,OUTDOORAIR:MIXER,VAV_2_OAMIXING BOX,Inlet,1
 Non-Parent Node Connection,VAV_3_OA-VAV_3_COOLCNODE,OUTDOORAIR:MIXER,VAV_3_OAMIXING BOX,Outlet,1
 Non-Parent Node Connection,VAV_3_OAINLET NODE,OUTDOORAIR:MIXER,VAV_3_OAMIXING BOX,Inlet,1
 Non-Parent Node Connection,VAV_3_OARELIEF NODE,OUTDOORAIR:MIXER,VAV_3_OAMIXING BOX,ReliefAir,1
 Non-Parent Node Connection,VAV_3 SUPPLY EQUIPMENT INLET NODE,OUTDOORAIR:MIXER,VAV_3_OAMIXING BOX,Inlet,1
 Non-Parent Node Connection,VAV_5_OA-VAV_5_COOLCNODE,OUTDOORAIR:MIXER,VAV_5_OAMIXING BOX,Outlet,1
 Non-Parent Node Connection,VAV_5_OAINLET NODE,OUTDOORAIR:MIXER,VAV_5_OAMIXING BOX,Inlet,1
 Non-Parent Node Connection,VAV_5_OARELIEF NODE,OUTDOORAIR:MIXER,VAV_5_OAMIXING BOX,ReliefAir,1
 Non-Parent Node Connection,VAV_5 SUPPLY EQUIPMENT INLET NODE,OUTDOORAIR:MIXER,VAV_5_OAMIXING BOX,Inlet,1
 Non-Parent Node Connection,VAV_1_COOLC-VAV_1_HEATCNODE,CONTROLLER:WATERCOIL,VAV_1_COOLC_CONTROLLER,Sensor,1
 Non-Parent Node Connection,VAV_1_COOLCDEMAND INLET NODE,CONTROLLER:WATERCOIL,VAV_1_COOLC_CONTROLLER,Actuator,1
 Non-Parent Node Connection,VAV_1_HEATC-VAV_1_FANNODE,CONTROLLER:WATERCOIL,VAV_1_HEATC_CONTROLLER,Sensor,1
 Non-Parent Node Connection,VAV_1_HEATCDEMAND INLET NODE,CONTROLLER:WATERCOIL,VAV_1_HEATC_CONTROLLER,Actuator,1
 Non-Parent Node Connection,VAV_2_COOLC-VAV_2_HEATCNODE,CONTROLLER:WATERCOIL,VAV_2_COOLC_CONTROLLER,Sensor,1
 Non-Parent Node Connection,VAV_2_COOLCDEMAND INLET NODE,CONTROLLER:WATERCOIL,VAV_2_COOLC_CONTROLLER,Actuator,1
 Non-Parent Node Connection,VAV_2_HEATC-VAV_2_FANNODE,CONTROLLER:WATERCOIL,VAV_2_HEATC_CONTROLLER,Sensor,1
 Non-Parent Node Connection,VAV_2_HEATCDEMAND INLET NODE,CONTROLLER:WATERCOIL,VAV_2_HEATC_CONTROLLER,Actuator,1
 Non-Parent Node Connection,VAV_3_COOLC-VAV_3_HEATCNODE,CONTROLLER:WATERCOIL,VAV_3_COOLC_CONTROLLER,Sensor,1
 Non-Parent Node Connection,VAV_3_COOLCDEMAND INLET NODE,CONTROLLER:WATERCOIL,VAV_3_COOLC_CONTROLLER,Actuator,1
 Non-Parent Node Connection,VAV_3_HEATC-VAV_3_FANNODE,CONTROLLER:WATERCOIL,VAV_3_HEATC_CONTROLLER,Sensor,1
 Non-Parent Node Connection,VAV_3_HEATCDEMAND INLET NODE,CONTROLLER:WATERCOIL,VAV_3_HEATC_CONTROLLER,Actuator,1
 Non-Parent Node Connection,VAV_5_COOLC-VAV_5_HEATCNODE,CONTROLLER:WATERCOIL,VAV_5_COOLC_CONTROLLER,Sensor,1
 Non-Parent Node Connection,VAV_5_COOLCDEMAND INLET NODE,CONTROLLER:WATERCOIL,VAV_5_COOLC_CONTROLLER,Actuator,1
 Non-Parent Node Connection,VAV_5_HEATC-VAV_5_FANNODE,CONTROLLER:WATERCOIL,VAV_5_HEATC_CONTROLLER,Sensor,1
 Non-Parent Node Connection,VAV_5_HEATCDEMAND INLET NODE,CONTROLLER:WATERCOIL,VAV_5_HEATC_CONTROLLER,Actuator,1
 Non-Parent Node Connection,VAV_1_HEATC-VAV_1_FANNODE,FAN:VARIABLEVOLUME,VAV_1_FAN,Inlet,1
 Non-Parent Node Connection,VAV_1 SUPPLY EQUIPMENT OUTLET NODE,FAN:VARIABLEVOLUME,VAV_1_FAN,Outlet,1
 Non-Parent Node Connection,VAV_2_HEATC-VAV_2_FANNODE,FAN:VARIABLEVOLUME,VAV_2_FAN,Inlet,1
 Non-Parent Node Connection,VAV_2 SUPPLY EQUIPMENT OUTLET NODE,FAN:VARIABLEVOLUME,VAV_2_FAN,Outlet,1
 Non-Parent Node Connection,VAV_3_HEATC-VAV_3_FANNODE,FAN:VARIABLEVOLUME,VAV_3_FAN,Inlet,1
 Non-Parent Node Connection,VAV_3 SUPPLY EQUIPMENT OUTLET NODE,FAN:VARIABLEVOLUME,VAV_3_FAN,Outlet,1
 Non-Parent Node Connection,VAV_5_HEATC-VAV_5_FANNODE,FAN:VARIABLEVOLUME,VAV_5_FAN,Inlet,1
 Non-Parent Node Connection,VAV_5 SUPPLY EQUIPMENT OUTLET NODE,FAN:VARIABLEVOLUME,VAV_5_FAN,Outlet,1
 Non-Parent Node Connection,VAV_1_OA-VAV_1_COOLCNODE,CONTROLLER:OUTDOORAIR,VAV_1_OA_CONTROLLER,Sensor,1
 Non-Parent Node Connection,VAV_1_OAINLET NODE,CONTROLLER:OUTDOORAIR,VAV_1_OA_CONTROLLER,Actuator,1
 Non-Parent Node Connection,VAV_1_OARELIEF NODE,CONTROLLER:OUTDOORAIR,VAV_1_OA_CONTROLLER,Actuator,1
 Non-Parent Node Connection,VAV_1 SUPPLY EQUIPMENT INLET NODE,CONTROLLER:OUTDOORAIR,VAV_1_OA_CONTROLLER,Sensor,1
 Non-Parent Node Connection,VAV_2_OA-VAV_2_COOLCNODE,CONTROLLER:OUTDOORAIR,VAV_2_OA_CONTROLLER,Sensor,1
 Non-Parent Node Connection,VAV_2_OAINLET NODE,CONTROLLER:OUTDOORAIR,VAV_2_OA_CONTROLLER,Actuator,1
 Non-Parent Node Connection,VAV_2_OARELIEF NODE,CONTROLLER:OUTDOORAIR,VAV_2_OA_CONTROLLER,Actuator,1
 Non-Parent Node Connection,VAV_2 SUPPLY EQUIPMENT INLET NODE,CONTROLLER:OUTDOORAIR,VAV_2_OA_CONTROLLER,Sensor,1
 Non-Parent Node Connection,VAV_3_OA-VAV_3_COOLCNODE,CONTROLLER:OUTDOORAIR,VAV_3_OA_CONTROLLER,Sensor,1
 Non-Parent Node Connection,VAV_3_OAINLET NODE,CONTROLLER:OUTDOORAIR,VAV_3_OA_CONTROLLER,Actuator,1
 Non-Parent Node Connection,VAV_3_OARELIEF NODE,CONTROLLER:OUTDOORAIR,VAV_3_OA_CONTROLLER,Actuator,1
 Non-Parent Node Connection,VAV_3 SUPPLY EQUIPMENT INLET NODE,CONTROLLER:OUTDOORAIR,VAV_3_OA_CONTROLLER,Sensor,1
 Non-Parent Node Connection,VAV_5_OA-VAV_5_COOLCNODE,CONTROLLER:OUTDOORAIR,VAV_5_OA_CONTROLLER,Sensor,1
 Non-Parent Node Connection,VAV_5_OAINLET NODE,CONTROLLER:OUTDOORAIR,VAV_5_OA_CONTROLLER,Actuator,1
 Non-Parent Node Connection,VAV_5_OARELIEF NODE,CONTROLLER:OUTDOORAIR,VAV_5_OA_CONTROLLER,Actuator,1
 Non-Parent Node Connection,VAV_5 SUPPLY EQUIPMENT INLET NODE,CONTROLLER:OUTDOORAIR,VAV_5_OA_CONTROLLER,Sensor,1
 Non-Parent Node Connection,COOLSYS1 PUMP-COOLSYS1 CHILLERNODE 1,CHILLER:ELECTRIC:REFORMULATEDEIR,COOLSYS1 CHILLER 1,Inlet,1
 Non-Parent Node Connection,COOLSYS1 SUPPLY EQUIPMENT OUTLET NODE 1,CHILLER:ELECTRIC:REFORMULATEDEIR,COOLSYS1 CHILLER 1,Outlet,1
 Non-Parent Node Connection,COOLSYS1 CHILLER WATER INLET NODE 1,CHILLER:ELECTRIC:REFORMULATEDEIR,COOLSYS1 CHILLER 1,Inlet,2
 Non-Parent Node Connection,COOLSYS1 CHILLER WATER OUTLET NODE 1,CHILLER:ELECTRIC:REFORMULATEDEIR,COOLSYS1 CHILLER 1,Outlet,2
 Non-Parent Node Connection,COOLSYS1 PUMP-COOLSYS1 CHILLERNODE 2,CHILLER:ELECTRIC:REFORMULATEDEIR,COOLSYS1 CHILLER 2,Inlet,1
 Non-Parent Node Connection,COOLSYS1 SUPPLY EQUIPMENT OUTLET NODE 2,CHILLER:ELECTRIC:REFORMULATEDEIR,COOLSYS1 CHILLER 2,Outlet,1
 Non-Parent Node Connection,COOLSYS1 CHILLER WATER INLET NODE 2,CHILLER:ELECTRIC:REFORMULATEDEIR,COOLSYS1 CHILLER 2,Inlet,2
 Non-Parent Node Connection,COOLSYS1 CHILLER WATER OUTLET NODE 2,CHILLER:ELECTRIC:REFORMULATEDEIR,COOLSYS1 CHILLER 2,Outlet,2
 Non-Parent Node Connection,HEATSYS1 PUMP-HEATSYS1 BOILERNODE,BOILER:HOTWATER,HEATSYS1 BOILER,Inlet,1
 Non-Parent Node Connection,HEATSYS1 SUPPLY EQUIPMENT OUTLET NODE,BOILER:HOTWATER,HEATSYS1 BOILER,Outlet,1
 Non-Parent Node Connection,TOWERWATERSYS PUMP-TOWERWATERSYS COOLTOWERNODE,COOLINGTOWER:SINGLESPEED,TOWERWATERSYS COOLTOWER,Inlet,1
 Non-Parent Node Connection,TOWERWATERSYS SUPPLY EQUIPMENT OUTLET NODE,COOLINGTOWER:SINGLESPEED,TOWERWATERSYS COOLTOWER,Outlet,1
 Non-Parent Node Connection,TOWERWATERSYS COOLTOWER OA REF NODE,COOLINGTOWER:SINGLESPEED,TOWERWATERSYS COOLTOWER,OutsideAirReference,1
 Non-Parent Node Connection,COOLSYS1 SUPPLY INLET NODE,PUMP:VARIABLESPEED,COOLSYS1 PUMP,Inlet,1
 Non-Parent Node Connection,COOLSYS1 PUMP-COOLSYS1 CHILLERNODEVIACONNECTOR,PUMP:VARIABLESPEED,COOLSYS1 PUMP,Outlet,1
 Non-Parent Node Connection,HEATSYS1 SUPPLY INLET NODE,PUMP:VARIABLESPEED,HEATSYS1 PUMP,Inlet,1
 Non-Parent Node Connection,HEATSYS1 PUMP-HEATSYS1 BOILERNODEVIACONNECTOR,PUMP:VARIABLESPEED,HEATSYS1 PUMP,Outlet,1
 Non-Parent Node Connection,SWHSYS1 SUPPLY INLET NODE,PUMP:VARIABLESPEED,SWHSYS1 PUMP,Inlet,1
 Non-Parent Node Connection,SWHSYS1 PUMP-SWHSYS1 WATER HEATERNODEVIACONNECTOR,PUMP:VARIABLESPEED,SWHSYS1 PUMP,Outlet,1
 Non-Parent Node Connection,TOWERWATERSYS SUPPLY INLET NODE,PUMP:CONSTANTSPEED,TOWERWATERSYS PUMP,Inlet,1
 Non-Parent Node Connection,TOWERWATERSYS PUMP-TOWERWATERSYS COOLTOWERNODEVIACONNECTOR,PUMP:CONSTANTSPEED,TOWERWATERSYS PUMP,Outlet,1
